
  EPA STORM WATER MANAGEMENT MODEL - VERSION 5.1 (Build 5.3.0.dev0)
  --------------------------------------------------------------

  WARNING 04: minimum elevation drop used for Conduit WS02004404WS02004405
  WARNING 03: negative offset ignored for Link YS02001904YS02001907
  
  *********************************************************
  NOTE: The summary statistics displayed in this report are
  based on results found at every computational time step,  
  not just on results from each reporting time step.
  *********************************************************
  
  ****************
  Analysis Options
  ****************
  Flow Units ............... LPS
  Process Models:
    Rainfall/Runoff ........ YES
    RDII ................... NO
    Snowmelt ............... NO
    Groundwater ............ NO
    Flow Routing ........... YES
    Ponding Allowed ........ NO
    Water Quality .......... NO
  Infiltration Method ...... HORTON
  Flow Routing Method ...... DYNWAVE
  Surcharge Method ......... EXTRAN
  Starting Date ............ 08/28/2015 08:00:00
  Ending Date .............. 08/28/2015 15:50:00
  Antecedent Dry Days ...... 8.0
  Report Time Step ......... 00:01:00
  Wet Time Step ............ 00:01:00
  Dry Time Step ............ 00:01:00
  Routing Time Step ........ 5.00 sec
  Variable Time Step ....... YES
  Maximum Trials ........... 8
  Number of Threads ........ 4
  Head Tolerance ........... 0.001500 m
  
  
  **************************        Volume         Depth
  Runoff Quantity Continuity     hectare-m            mm
  **************************     ---------       -------
  Total Precipitation ......         0.512         1.121
  Evaporation Loss .........         0.000         0.000
  Infiltration Loss ........         0.120         0.262
  Surface Runoff ...........         0.048         0.104
  Final Storage ............         0.345         0.756
  Continuity Error (%) .....        -0.006
  
  
  **************************        Volume        Volume
  Flow Routing Continuity        hectare-m      10^6 ltr
  **************************     ---------     ---------
  Dry Weather Inflow .......         0.616         6.165
  Wet Weather Inflow .......         0.048         0.475
  Groundwater Inflow .......         0.000         0.000
  RDII Inflow ..............         0.000         0.000
  External Inflow ..........         0.102         1.024
  External Outflow .........         0.738         7.379
  Flooding Loss ............         0.000         0.001
  Evaporation Loss .........         0.000         0.000
  Exfiltration Loss ........         0.000         0.000
  Initial Stored Volume ....         0.076         0.761
  Final Stored Volume ......         0.120         1.202
  Continuity Error (%) .....        -1.867
  
  
  *************************
  Highest Continuity Errors
  *************************
  Node YS02001757 (90.06%)
  Node HS02004842 (83.77%)
  Node HS02004901 (76.41%)
  Node YS02001774 (76.32%)
  Node YS02001884 (65.59%)
  
  
  ***************************
  Time-Step Critical Elements
  ***************************
  Link WS02006280WS02006229 (71.46%)
  Link 3 (8.02%)
  Link WS02006238WS02006235 (1.65%)
  
  
  ********************************
  Highest Flow Instability Indexes
  ********************************
  Link WS02006238WS02006235 (8)
  Link WS02006256WS02006235 (7)
  Link WS02006229WS02006228 (3)
  Link WS02004403WS02004404 (3)
  Link WS02004404WS02004405 (3)
  
  
  *************************
  Routing Time Step Summary
  *************************
  Minimum Time Step           :     0.52 sec
  Average Time Step           :     4.32 sec
  Maximum Time Step           :     5.00 sec
  Percent in Steady State     :     0.00
  Average Iterations per Step :     2.01
  Percent Not Converging      :     0.06
  
  
  ***************************
  Subcatchment Runoff Summary
  ***************************
  
  ------------------------------------------------------------------------------------------------------------------------------
                            Total      Total      Total      Total     Imperv       Perv      Total       Total     Peak  Runoff
                           Precip      Runon       Evap      Infil     Runoff     Runoff     Runoff      Runoff   Runoff   Coeff
  Subcatchment                 mm         mm         mm         mm         mm         mm         mm    10^6 ltr      LPS
  ------------------------------------------------------------------------------------------------------------------------------
  sub0                       1.12       0.00       0.00       0.08       0.26       0.00       0.26        0.00     0.07   0.230
  sub1                       1.12       0.00       0.00       0.12       0.24       0.00       0.24        0.00     0.31   0.212
  sub2                       1.12       0.00       0.00       0.41       0.17       0.00       0.17        0.00     0.27   0.147
  sub3                       1.12       0.00       0.00       0.41       0.16       0.00       0.16        0.00     0.52   0.142
  sub4                       1.12       0.00       0.00       0.12       0.21       0.00       0.21        0.00     0.56   0.191
  sub5                       1.12       0.00       0.00       0.08       0.25       0.00       0.25        0.00     0.55   0.222
  sub7                       1.12       0.00       0.00       0.10       0.25       0.00       0.25        0.00     0.21   0.222
  sub8                       1.12       0.00       0.00       0.10       0.25       0.00       0.25        0.00     0.36   0.221
  sub9                       1.12       0.00       0.00       0.10       0.25       0.00       0.25        0.00     0.26   0.220
  sub10                      1.12       0.00       0.00       0.09       0.25       0.00       0.25        0.00     0.56   0.221
  sub11                      1.12       0.00       0.00       0.09       0.25       0.00       0.25        0.00     0.68   0.224
  sub12                      1.12       0.00       0.00       0.15       0.24       0.00       0.24        0.00     0.61   0.215
  sub14                      1.12       0.00       0.00       0.10       0.25       0.00       0.25        0.00     0.52   0.220
  sub15                      1.12       0.00       0.00       0.34       0.19       0.00       0.19        0.00     0.69   0.169
  sub16                      1.12       0.00       0.00       0.37       0.18       0.00       0.18        0.00     0.53   0.165
  sub17                      1.12       0.00       0.00       0.36       0.19       0.00       0.19        0.00     0.42   0.167
  sub22                      1.12       0.00       0.00       0.48       0.16       0.00       0.16        0.01     2.34   0.139
  sub23                      1.12       0.00       0.00       0.41       0.17       0.00       0.17        0.01     2.01   0.154
  sub60                      1.12       0.00       0.00       0.13       0.11       0.00       0.11        0.03     2.23   0.097
  sub61                      1.12       0.00       0.00       0.19       0.13       0.00       0.13        0.04     2.98   0.115
  sub62                      1.12       0.00       0.00       0.09       0.13       0.00       0.13        0.04     3.00   0.119
  sub63                      1.12       0.00       0.00       0.33       0.12       0.00       0.12        0.04     2.84   0.106
  sub64                      1.12       0.00       0.00       0.17       0.10       0.00       0.10        0.03     2.11   0.092
  sub65                      1.12       0.00       0.00       0.15       0.10       0.00       0.10        0.03     2.13   0.092
  sub66                      1.12       0.00       0.00       0.33       0.09       0.00       0.09        0.03     1.98   0.083
  sub67                      1.12       0.00       0.00       0.09       0.16       0.00       0.16        0.05     4.05   0.144
  sub68                      1.12       0.00       0.00       0.16       0.14       0.00       0.14        0.04     3.34   0.125
  sub69                      1.12       0.00       0.00       0.17       0.17       0.00       0.17        0.04     3.52   0.149
  sub70                      1.12       0.17       0.00       0.44       0.11       0.00       0.11        0.03     1.79   0.088
  sub71                      1.12       0.00       0.00       0.09       0.12       0.00       0.12        0.03     2.05   0.110
  sub72                      1.12       0.00       0.00       0.08       0.07       0.00       0.07        0.01     0.86   0.064
  sub73                      1.12       0.11       0.00       0.42       0.10       0.00       0.10        0.02     1.68   0.084
  sub74                      1.12       0.00       0.00       0.84       0.05       0.00       0.05        0.02     2.01   0.047
  
  
  ******************
  Node Depth Summary
  ******************
  
  ---------------------------------------------------------------------------------
                                 Average  Maximum  Maximum  Time of Max    Reported
                                   Depth    Depth      HGL   Occurrence   Max Depth
  Node                 Type       Meters   Meters   Meters  days hr:min      Meters
  ---------------------------------------------------------------------------------
  WS02001211           JUNCTION     0.60     0.76     5.60     0  04:34        0.76
  WS02001212           JUNCTION     0.33     0.45     5.52     0  04:32        0.45
  WS02001213           JUNCTION     0.49     0.67     5.43     0  04:32        0.67
  WS02003069           JUNCTION     0.26     0.38     4.97     0  04:28        0.38
  WS02003072           JUNCTION     0.32     0.45     4.83     0  04:29        0.45
  WS02003073           JUNCTION     0.19     0.27     4.33     0  04:29        0.27
  WS02003060           JUNCTION     0.24     0.34     5.28     0  04:27        0.34
  WS02003066           JUNCTION     0.08     0.13     5.69     0  04:19        0.13
  WS02003059           JUNCTION     0.54     0.71     5.40     0  04:31        0.71
  WS02003067           JUNCTION     0.25     0.38     5.70     0  04:19        0.38
  WS02004401           JUNCTION     0.33     0.42     6.42     0  04:14        0.42
  WS02004402           JUNCTION     0.36     0.46     6.42     0  04:14        0.46
  WS02004403           JUNCTION     0.39     0.49     6.42     0  04:14        0.49
  WS02004404           JUNCTION     0.46     0.57     6.42     0  04:15        0.57
  WS02004406           JUNCTION     0.47     0.59     6.42     0  04:15        0.59
  WS02004409           JUNCTION     0.13     0.20     5.97     0  04:16        0.20
  WS02004410           JUNCTION     0.15     0.24     5.96     0  04:17        0.24
  WS02004411           JUNCTION     0.18     0.27     5.95     0  04:17        0.27
  WS02004412           JUNCTION     0.20     0.31     5.95     0  04:18        0.31
  WS02004413           JUNCTION     0.32     0.48     5.95     0  04:18        0.48
  WS02004405           JUNCTION     0.46     0.57     6.42     0  04:15        0.57
  WS02006109           JUNCTION     0.37     0.43     7.05     0  04:07        0.43
  WS02006110           JUNCTION     0.39     0.46     7.05     0  04:08        0.46
  WS02006111           JUNCTION     0.07     0.10     6.80     0  04:08        0.10
  WS02006112           JUNCTION     0.45     0.55     6.43     0  04:13        0.55
  WS02006113           JUNCTION     0.10     0.14     7.03     0  04:07        0.14
  WS02006115           JUNCTION     0.21     0.29     6.42     0  04:13        0.29
  WS02006116           JUNCTION     0.29     0.38     6.42     0  04:13        0.38
  WS02006230           JUNCTION     0.26     0.32     7.06     0  04:07        0.32
  WS02006231           JUNCTION     0.12     0.29     7.41     0  00:05        0.28
  WS02006232           JUNCTION     0.21     0.40     7.44     0  00:05        0.39
  WS02006234           JUNCTION     0.10     0.28     7.44     0  00:05        0.28
  WS02006235           JUNCTION     0.14     0.32     7.49     0  00:04        0.32
  WS02006238           JUNCTION     0.15     0.34     7.49     0  00:05        0.34
  WS02006240           JUNCTION     0.03     0.18     7.47     0  00:05        0.18
  WS02006242           JUNCTION     0.06     0.22     7.49     0  00:06        0.22
  WS02006243           JUNCTION     0.01     0.07     7.49     0  00:07        0.07
  WS02006245           JUNCTION     0.02     0.04     7.53     0  02:39        0.04
  WS02006247           JUNCTION     0.03     0.04     7.54     0  02:38        0.04
  WS02006248           JUNCTION     0.01     0.03     7.61     0  02:35        0.03
  WS02006249           JUNCTION     0.03     0.05     7.65     0  02:35        0.05
  WS02006239           JUNCTION     0.09     0.27     7.48     0  00:02        0.27
  WS02006251           JUNCTION     0.02     0.03     7.70     0  02:30        0.03
  WS02006252           JUNCTION     0.00     0.00     8.24     0  00:00        0.00
  WS02006253           JUNCTION     0.04     0.07     7.71     0  02:29        0.07
  WS02006256           JUNCTION     0.43     2.35     9.28     0  00:00        1.19
  WS02004138           JUNCTION     0.14     0.19     7.44     0  04:20        0.19
  WS02004407           JUNCTION     0.06     0.09     6.41     0  04:15        0.09
  WS02006228           JUNCTION     0.34     0.40     7.05     0  04:07        0.40
  WS02006229           JUNCTION     0.30     0.36     7.06     0  04:07        0.36
  WS02006280           JUNCTION     0.03     0.04     8.31     0  02:28        0.04
  WS02006284           JUNCTION     0.28     0.34     8.74     0  02:28        0.34
  WS02006287           JUNCTION     0.04     0.06     9.02     0  02:27        0.06
  WSF200               JUNCTION     0.05     0.09     5.32     0  04:19        0.09
  HS02004901           JUNCTION     0.06     0.09     9.91     0  03:35        0.09
  HS02004881           JUNCTION     0.00     0.00     9.03     0  02:27        0.00
  HS02004876           JUNCTION     0.01     0.02     9.05     0  02:29        0.02
  HS02004870           JUNCTION     0.00     0.00     9.29     0  02:21        0.00
  HS02004862           JUNCTION     0.00     0.01     9.39     0  03:33        0.01
  HS02004856           JUNCTION     0.05     0.07     9.50     0  03:28        0.07
  HS02004852           JUNCTION     0.00     0.00     9.51     0  02:43        0.00
  HS02004848           JUNCTION     0.00     0.00     9.60     0  02:21        0.00
  HS02004842           JUNCTION     0.29     0.33     9.60     0  02:21        0.33
  HS02004837           JUNCTION     0.02     0.02     9.60     0  02:21        0.02
  HS02004830           JUNCTION     0.03     0.03     9.50     0  02:22        0.03
  HS02004824           JUNCTION     0.01     0.01     9.42     0  02:24        0.01
  HS02004817           JUNCTION     0.35     0.42     9.27     0  02:27        0.42
  HS02004807           JUNCTION     0.08     0.10     9.27     0  02:27        0.10
  HS02004802           JUNCTION     0.11     0.14     9.27     0  02:27        0.14
  HS02004799           JUNCTION     0.06     0.08     9.29     0  02:24        0.08
  HS02004792           JUNCTION     0.01     0.01     9.54     0  02:15        0.01
  HS02004788           JUNCTION     0.01     0.01     9.91     0  03:26        0.01
  HS02004785           JUNCTION     0.01     0.01     9.91     0  03:31        0.01
  HS02004777           JUNCTION     0.08     0.12     9.91     0  03:34        0.12
  HS02004770           JUNCTION     0.05     0.08     9.91     0  03:34        0.08
  HS02004480           JUNCTION     0.03     0.05     9.29     0  02:24        0.05
  HS02004479           JUNCTION     0.06     0.08     9.29     0  02:25        0.08
  HS02004478           JUNCTION     0.03     0.04     9.27     0  02:27        0.04
  YS02001745           JUNCTION     0.01     0.02     7.54     0  03:01        0.02
  YS02001748           JUNCTION     0.02     0.03     7.10     0  03:01        0.03
  YS02001751           JUNCTION     0.02     0.08     6.96     0  07:50        0.08
  YS02001754           JUNCTION     0.12     0.35     6.96     0  07:50        0.35
  YS02001762           JUNCTION     0.26     0.56     6.96     0  07:50        0.56
  YS02001765           JUNCTION     0.22     0.51     6.96     0  07:50        0.51
  YS02001767           JUNCTION     0.20     0.47     6.96     0  07:50        0.47
  YS02001770           JUNCTION     0.20     0.46     6.96     0  07:50        0.46
  YS02001774           JUNCTION     0.24     0.54     6.96     0  07:50        0.54
  YS02001779           JUNCTION     0.08     0.27     6.96     0  07:50        0.27
  YS02001882           JUNCTION     0.07     0.13     6.84     0  03:39        0.13
  YS02001884           JUNCTION     0.15     0.23     6.84     0  03:36        0.23
  YS02001759           JUNCTION     0.28     0.59     6.96     0  07:50        0.59
  YS02001887           JUNCTION     0.22     0.30     6.84     0  03:37        0.30
  YS02001890           JUNCTION     0.25     0.34     6.84     0  03:37        0.34
  YS02001898           JUNCTION     0.06     0.10     6.84     0  03:37        0.10
  YS02001901           JUNCTION     0.14     0.23     6.84     0  03:38        0.23
  YS02001904           JUNCTION     0.13     0.21     6.84     0  03:39        0.21
  YS02001907           JUNCTION     0.41     0.55     6.84     0  03:39        0.55
  YS02001910           JUNCTION     0.23     0.33     6.84     0  03:41        0.33
  YS02001915           JUNCTION     0.08     0.12     6.84     0  03:40        0.12
  YS02001918           JUNCTION     0.03     0.03     7.10     0  03:12        0.03
  YS02001619           JUNCTION     0.03     0.05     6.97     0  03:01        0.05
  YS02001629           JUNCTION     0.16     0.41     6.96     0  07:50        0.41
  YS02001641           JUNCTION     0.24     0.52     6.96     0  07:50        0.52
  YS02001644           JUNCTION     0.24     0.52     6.96     0  07:50        0.52
  YS02001652           JUNCTION     0.13     0.36     6.96     0  07:50        0.36
  YS02001655           JUNCTION     0.03     0.11     6.96     0  07:50        0.11
  YS02001920           JUNCTION     0.10     0.10     7.11     0  03:11        0.10
  YS02001923           JUNCTION     0.01     0.02     7.28     0  03:08        0.02
  YS02001926           JUNCTION     0.04     0.05     7.50     0  03:07        0.05
  YS02001929           JUNCTION     0.01     0.02     7.71     0  03:01        0.02
  YS02001658           JUNCTION     0.01     0.03     7.17     0  03:01        0.03
  YS02001661           JUNCTION     0.07     0.10     7.50     0  03:00        0.10
  YS02001664           JUNCTION     0.01     0.02     7.95     0  02:59        0.02
  YS02001622           JUNCTION     0.02     0.05     6.96     0  07:50        0.05
  YS02001633           JUNCTION     0.23     0.50     6.96     0  07:50        0.50
  YS02001649           JUNCTION     0.26     0.57     6.96     0  07:50        0.57
  YS02001757           JUNCTION     0.37     0.70     6.96     0  07:50        0.70
  YS02001895           JUNCTION     0.05     0.09     6.84     0  03:37        0.09
  YS02001625           JUNCTION     0.21     0.35     6.96     0  07:50        0.35
  YS02163301           JUNCTION     0.18     0.44     6.96     0  07:50        0.44
  YS02163601           JUNCTION     0.28     0.56     6.96     0  07:50        0.56
  YS02164001           JUNCTION     0.22     0.50     6.96     0  07:50        0.50
  YS02001647           JUNCTION     0.12     0.35     6.96     0  07:50        0.35
  YSB1154              JUNCTION     0.17     0.23     9.29     0  02:26        0.23
  YSB6556              JUNCTION     0.08     0.12     9.29     0  02:25        0.12
  YSB1174              JUNCTION     0.13     0.18     9.29     0  02:24        0.18
  YSB1171              JUNCTION     0.31     0.38     9.29     0  02:25        0.38
  YS02006553           JUNCTION     0.42     0.55     6.84     0  03:39        0.55
  YS02006561           JUNCTION     0.02     0.05     6.71     0  03:39        0.05
  YS02006556           JUNCTION     0.39     0.53     6.84     0  03:38        0.53
  YS02006558           JUNCTION     0.44     0.57     6.84     0  03:38        0.57
  YS02001783           JUNCTION     0.04     0.07     6.22     0  03:42        0.07
  YS02001784           JUNCTION     0.06     0.10     6.17     0  03:43        0.10
  YS02001786           JUNCTION     0.06     0.09     6.12     0  03:43        0.09
  YS02001788           JUNCTION     0.04     0.06     6.03     0  03:41        0.06
  YS02001790           JUNCTION     0.05     0.07     5.72     0  03:44        0.07
  YS02001791           JUNCTION     0.03     0.05     5.52     0  03:40        0.05
  YS02001793           JUNCTION     0.02     0.03     4.86     0  03:41        0.03
  WS02004139           JUNCTION     0.55     0.71     5.62     0  04:34        0.71
  WSC                  OUTFALL      0.18     0.27     0.94     0  04:30        0.27
  3                    OUTFALL      0.01     0.23     6.23     0  00:00        0.19
  4                    OUTFALL      0.00     0.00     7.00     0  00:00        0.00
  5                    OUTFALL      0.00     0.00     5.00     0  00:00        0.00
  JK-storage           STORAGE      0.12     3.00     3.80     0  00:00        2.39
  CC-storage           STORAGE      0.00     0.00     7.00     0  00:00        0.00
  XR-storage           STORAGE      3.97     5.64     3.64     0  03:35        5.64
  
  
  *******************
  Node Inflow Summary
  *******************
  
  -------------------------------------------------------------------------------------------------
                                  Maximum  Maximum                  Lateral       Total        Flow
                                  Lateral    Total  Time of Max      Inflow      Inflow     Balance
                                   Inflow   Inflow   Occurrence      Volume      Volume       Error
  Node                 Type           LPS      LPS  days hr:min    10^6 ltr    10^6 ltr     Percent
  -------------------------------------------------------------------------------------------------
  WS02001211           JUNCTION      7.35   387.69     0  04:40       0.207        6.19       0.592
  WS02001212           JUNCTION      0.00   387.71     0  04:40           0        6.15       0.322
  WS02001213           JUNCTION      0.00   387.73     0  04:39           0        6.13       0.337
  WS02003069           JUNCTION      0.32   450.85     0  04:27     0.00902        7.27       0.265
  WS02003072           JUNCTION      0.00   450.85     0  04:28           0        7.25       0.363
  WS02003073           JUNCTION      1.82   452.67     0  04:29      0.0514        7.28       0.396
  WS02003060           JUNCTION     16.53   450.51     0  04:27       0.466        7.29       0.272
  WS02003066           JUNCTION      0.00    50.24     0  04:19           0       0.745       0.224
  WS02003059           JUNCTION      0.00   387.78     0  04:39           0        6.11       0.575
  WS02003067           JUNCTION      0.00    50.24     0  04:19           0        0.75       0.634
  WS02004401           JUNCTION      0.00    50.63     0  04:13           0       0.864       1.315
  WS02004402           JUNCTION      0.00    50.58     0  04:13           0       0.853       1.345
  WS02004403           JUNCTION      0.00    50.54     0  04:14           0       0.842       1.311
  WS02004404           JUNCTION      0.16    50.67     0  04:14     0.00457       0.835       1.074
  WS02004406           JUNCTION      0.00    50.66     0  04:14           0       0.814       2.755
  WS02004409           JUNCTION      0.00    50.63     0  04:15           0        0.79       0.509
  WS02004410           JUNCTION      0.00    50.55     0  04:16           0       0.786       0.734
  WS02004411           JUNCTION      0.00    50.47     0  04:17           0       0.781       0.893
  WS02004412           JUNCTION      0.00    50.39     0  04:17           0       0.774       1.159
  WS02004413           JUNCTION      0.00    50.31     0  04:18           0       0.765       2.007
  WS02004405           JUNCTION      0.04    50.69     0  04:14     0.00107       0.828       1.662
  WS02006109           JUNCTION      1.23    94.41     0  00:06      0.0347        0.92       1.367
  WS02006110           JUNCTION      0.00    57.51     0  00:07           0       0.907       0.970
  WS02006111           JUNCTION      0.00    50.87     0  04:07           0       0.896       0.118
  WS02006112           JUNCTION      0.42    50.89     0  04:08      0.0016       0.897       1.857
  WS02006113           JUNCTION      0.00    50.87     0  04:07           0       0.898       0.231
  WS02006115           JUNCTION      0.00    50.78     0  04:10           0       0.881       0.884
  WS02006116           JUNCTION      0.00    50.69     0  04:11           0       0.873       0.986
  WS02006230           JUNCTION     10.28   103.75     0  00:05        0.29       0.663       0.884
  WS02006231           JUNCTION      0.00    99.48     0  00:05           0       0.373       0.040
  WS02006232           JUNCTION      0.00   113.53     0  00:03           0       0.378       1.390
  WS02006234           JUNCTION      0.00   124.98     0  00:03           0       0.376      -0.416
  WS02006235           JUNCTION      0.00   177.52     0  00:01           0       0.411       0.654
  WS02006238           JUNCTION      0.00    96.52     0  00:00           0      0.0591       0.447
  WS02006240           JUNCTION      0.00    43.67     0  00:02           0      0.0258       0.562
  WS02006242           JUNCTION      0.00    31.17     0  00:04           0      0.0188       2.786
  WS02006243           JUNCTION      0.00    10.32     0  00:06           0       0.014       0.995
  WS02006245           JUNCTION      0.00     1.33     0  02:38           0      0.0132       1.440
  WS02006247           JUNCTION      0.00     1.33     0  02:35           0      0.0133       0.668
  WS02006248           JUNCTION      0.00     1.33     0  02:35           0      0.0133       0.236
  WS02006249           JUNCTION      0.00     1.35     0  02:31           0      0.0136       2.061
  WS02006239           JUNCTION      0.00    75.77     0  00:01           0      0.0386       0.219
  WS02006251           JUNCTION      0.08     1.35     0  02:28     0.00217      0.0136       0.459
  WS02006252           JUNCTION      0.00     0.00     0  00:00           0           0       0.000 ltr
  WS02006253           JUNCTION      0.07     1.28     0  02:27    0.000209      0.0116       1.199
  WS02006256           JUNCTION      0.00   600.00     0  00:00           0       0.499       0.164
  WS02004138           JUNCTION      0.00   380.00     0  04:20           0        6.01       0.073
  WS02004407           JUNCTION      0.00    50.64     0  04:15           0       0.792       0.244
  WS02006228           JUNCTION      0.00    95.52     0  00:06           0       0.892       0.805
  WS02006229           JUNCTION      0.00   101.26     0  00:06           0       0.896       0.501
  WS02006280           JUNCTION      0.00    15.36     0  02:28           0        0.24       0.032
  WS02006284           JUNCTION      0.10    15.36     0  02:27      0.0027       0.241       0.480
  WS02006287           JUNCTION      0.00    15.27     0  02:27           0       0.239       0.282
  WSF200               JUNCTION      0.00    50.24     0  04:19           0       0.744       0.150
  HS02004901           JUNCTION      0.53     0.58     0  02:14     0.00193     0.00226     323.939
  HS02004881           JUNCTION      0.21     1.23     0  02:26     0.00084      0.0114       0.396
  HS02004876           JUNCTION      0.31     1.11     0  02:19     0.00158       0.011       3.997
  HS02004870           JUNCTION      0.36     0.81     0  02:18     0.00158     0.00951       0.914
  HS02004862           JUNCTION      0.47     0.47     0  02:20     0.00718     0.00807       1.771
  HS02004856           JUNCTION      0.26     0.36     0  02:29     0.00119      0.0023     157.152
  HS02004852           JUNCTION      0.00     0.17     0  02:36           0     0.00113       1.596
  HS02004848           JUNCTION      0.52     0.52     0  02:25     0.00358     0.00358       0.439
  HS02004842           JUNCTION      0.00     4.47     0  00:03           0      0.0155     516.237
  HS02004837           JUNCTION      6.91     7.28     0  02:20       0.182       0.184       0.442
  HS02004830           JUNCTION      0.15     7.42     0  02:21     0.00423       0.175       0.705
  HS02004824           JUNCTION      0.61     8.02     0  02:24     0.00587       0.179       0.294
  HS02004817           JUNCTION      0.60     8.62     0  02:25      0.0169       0.196       9.282
  HS02004807           JUNCTION      0.68     9.22     0  02:24     0.00291       0.182       2.358
  HS02004802           JUNCTION      0.00     9.21     0  02:27           0       0.178       2.323
  HS02004799           JUNCTION      0.52     5.34     0  02:15     0.00235      0.0746       2.951
  HS02004792           JUNCTION      2.62     4.84     0  02:14      0.0177      0.0726       0.558
  HS02004788           JUNCTION      2.36     2.42     0  03:19      0.0503      0.0563       0.673
  HS02004785           JUNCTION      0.15     0.85     0  02:58     0.00423     0.00863       4.885
  HS02004777           JUNCTION      0.03     1.33     0  02:10    0.000846     0.00853     148.084
  HS02004770           JUNCTION      2.01     2.02     0  02:11     0.00822     0.00875      53.416
  HS02004480           JUNCTION      0.00     6.14     0  02:24           0      0.0774       0.700
  HS02004479           JUNCTION      0.00     2.69     0  01:43           0      0.0152       4.901
  HS02004478           JUNCTION      0.00    15.27     0  02:26           0        0.24       0.339
  YS02001745           JUNCTION      2.24     2.24     0  03:01       0.033       0.033       0.181
  YS02001748           JUNCTION      0.04     2.28     0  03:01     0.00127      0.0342       0.112
  YS02001751           JUNCTION      0.01     2.29     0  03:01     0.00031      0.0345       2.859
  YS02001754           JUNCTION      0.26     2.55     0  03:02     0.00733      0.0408      21.033
  YS02001762           JUNCTION      0.00     2.57     0  04:16           0      0.0269      78.415
  YS02001765           JUNCTION      0.00     2.26     0  02:23           0      0.0246      96.978
  YS02001767           JUNCTION      0.54     2.90     0  02:37      0.0151      0.0331      95.539
  YS02001770           JUNCTION      3.15     3.15     0  03:01      0.0454      0.0459      42.549
  YS02001774           JUNCTION      0.00     1.66     0  03:52           0      0.0164     322.319
  YS02001779           JUNCTION      0.01     0.75     0  04:38    0.000141     0.00402    3762.629
  YS02001882           JUNCTION      0.00     0.44     0  02:31           0    0.000924     434.960
  YS02001884           JUNCTION      0.00     1.44     0  02:26           0     0.00428     190.590
  YS02001759           JUNCTION      3.02     3.53     0  02:20      0.0407        0.05      39.041
  YS02001887           JUNCTION      4.50     4.50     0  02:56      0.0624       0.063       8.377
  YS02001890           JUNCTION      0.00     3.95     0  03:18           0       0.054      11.316
  YS02001898           JUNCTION      0.00     3.72     0  03:37           0      0.0473       2.095
  YS02001901           JUNCTION      0.00     3.77     0  03:31           0      0.0485       7.550
  YS02001904           JUNCTION      0.00     3.77     0  03:32           0      0.0499       6.908
  YS02001907           JUNCTION      0.00     9.39     0  03:41           0       0.162      12.874
  YS02001910           JUNCTION      0.00     6.35     0  03:03           0       0.124       6.433
  YS02001915           JUNCTION      2.07     5.85     0  03:01      0.0297       0.126       1.668
  YS02001918           JUNCTION      0.00     3.81     0  03:11           0      0.0964       0.383
  YS02001619           JUNCTION      1.98     1.98     0  03:01      0.0284      0.0284       0.314
  YS02001629           JUNCTION      0.00     1.66     0  04:00           0      0.0189      31.303
  YS02001641           JUNCTION      0.00     3.43     0  03:16           0      0.0219      97.215
  YS02001644           JUNCTION      2.15     4.56     0  03:17      0.0324      0.0399      49.014
  YS02001652           JUNCTION      0.00     3.00     0  03:01           0      0.0383      22.836
  YS02001655           JUNCTION      0.15     3.00     0  03:01     0.00434      0.0398       3.975
  YS02001920           JUNCTION      2.87     3.81     0  03:08      0.0809      0.0975       1.124
  YS02001923           JUNCTION      0.04     0.94     0  03:08     0.00106      0.0166       0.300
  YS02001926           JUNCTION      0.05     0.91     0  03:01     0.00147      0.0159       2.764
  YS02001929           JUNCTION      0.86     0.86     0  03:01      0.0145      0.0145       0.248
  YS02001658           JUNCTION      0.00     2.84     0  03:00           0      0.0355       0.147
  YS02001661           JUNCTION      0.00     2.84     0  02:59           0       0.036       1.179
  YS02001664           JUNCTION      2.84     2.84     0  02:59       0.036       0.036       0.098
  YS02001622           JUNCTION      0.00     1.97     0  03:01           0      0.0283       2.915
  YS02001633           JUNCTION      2.33     3.44     0  04:04      0.0374      0.0453      51.870
  YS02001649           JUNCTION      0.00     4.51     0  03:17           0       0.043      90.032
  YS02001757           JUNCTION      0.00     5.54     0  02:31           0      0.0689     906.154
  YS02001895           JUNCTION      0.00     3.77     0  03:30           0      0.0485       2.550
  YS02001625           JUNCTION      0.00     2.64     0  03:51           0      0.0277      57.871
  YS02163301           JUNCTION      0.00     1.66     0  04:04           0      0.0187     116.149
  YS02163601           JUNCTION      0.11     2.91     0  04:04      0.0031      0.0307     116.084
  YS02164001           JUNCTION      0.00     2.59     0  03:16           0      0.0203      94.907
  YS02001647           JUNCTION      0.00     3.12     0  03:16           0        0.02      90.956
  YSB1154              JUNCTION      0.55     1.59     0  01:15     0.00282      0.0044      48.272
  YSB6556              JUNCTION      0.00     2.09     0  01:22           0     0.00561      27.785
  YSB1174              JUNCTION      0.61     1.06     0  01:38      0.0021     0.00329      62.987
  YSB1171              JUNCTION      0.00     2.75     0  01:17           0      0.0147      74.764
  YS02006553           JUNCTION      0.00     9.43     0  03:38           0       0.147       9.004
  YS02006561           JUNCTION      0.00    12.92     0  03:38           0       0.181       0.097
  YS02006556           JUNCTION      0.00     9.40     0  03:38           0       0.147       6.173
  YS02006558           JUNCTION      4.22    12.95     0  03:38      0.0679       0.199       1.840
  YS02001783           JUNCTION      0.00    12.91     0  03:39           0       0.181       0.226
  YS02001784           JUNCTION      1.06    13.96     0  03:42      0.0299        0.21       0.357
  YS02001786           JUNCTION      0.06    14.01     0  03:41     0.00159       0.211       0.402
  YS02001788           JUNCTION      0.07    14.08     0  03:41       0.002       0.212       0.192
  YS02001790           JUNCTION      0.15    14.24     0  03:42     0.00437       0.216       0.246
  YS02001791           JUNCTION      0.00    14.23     0  03:44           0       0.216       0.121
  YS02001793           JUNCTION      0.00    14.34     0  03:40           0       0.215       0.034
  WS02004139           JUNCTION      0.32   380.35     0  04:20     0.00905        6.02       0.621
  WSC                  OUTFALL       0.00   452.66     0  04:30           0        7.25       0.000
  3                    OUTFALL       0.00   597.65     0  00:00           0       0.128       0.000
  4                    OUTFALL       0.00     0.00     0  00:00           0           0       0.000 ltr
  5                    OUTFALL       0.00     0.00     0  00:00           0           0       0.000 ltr
  JK-storage           STORAGE       0.00    14.66     0  03:40           0       0.366     -27.075
  CC-storage           STORAGE       0.00     0.00     0  00:00           0           0       0.000 ltr
  XR-storage           STORAGE     203.64   203.64     0  02:53        5.69        6.29      -0.001
  
  
  **********************
  Node Surcharge Summary
  **********************
  
  Surcharging occurs when water rises above the top of the highest conduit.
  ---------------------------------------------------------------------
                                               Max. Height   Min. Depth
                                   Hours       Above Crown    Below Rim
  Node                 Type      Surcharged         Meters       Meters
  ---------------------------------------------------------------------
  WS02006256           JUNCTION        0.01          1.050        0.000
  
  
  *********************
  Node Flooding Summary
  *********************
  
  Flooding refers to all water that overflows a node, whether it ponds or not.
  --------------------------------------------------------------------------
                                                             Total   Maximum
                                 Maximum   Time of Max       Flood    Ponded
                        Hours       Rate    Occurrence      Volume     Depth
  Node                 Flooded       LPS   days hr:min    10^6 ltr    Meters
  --------------------------------------------------------------------------
  WS02006256              0.01    406.11      0  00:00       0.001     0.000
  
  
  **********************
  Storage Volume Summary
  **********************
  
  --------------------------------------------------------------------------------------------------
                         Average     Avg  Evap Exfil       Maximum     Max    Time of Max    Maximum
                          Volume    Pcnt  Pcnt  Pcnt        Volume    Pcnt     Occurrence    Outflow
  Storage Unit           1000 m3    Full  Loss  Loss       1000 m3    Full    days hr:min        LPS
  --------------------------------------------------------------------------------------------------
  JK-storage               0.006       2     0     0         0.151      52       0  00:00     600.00
  CC-storage               0.000       0     0     0         0.000       0       0  00:00       0.00
  XR-storage               0.476      51     0     0         0.677      73       0  03:35     380.00
  
  
  ***********************
  Outfall Loading Summary
  ***********************
  
  -----------------------------------------------------------
                         Flow       Avg       Max       Total
                         Freq      Flow      Flow      Volume
  Outfall Node           Pcnt       LPS       LPS    10^6 ltr
  -----------------------------------------------------------
  WSC                   99.97    238.95    452.66       7.251
  3                      8.03    436.83    597.65       0.128
  4                      0.00      0.00      0.00       0.000
  5                      0.00      0.00      0.00       0.000
  -----------------------------------------------------------
  System                27.00    675.78    597.72       7.379
  
  
  ********************
  Link Flow Summary
  ********************
  
  -----------------------------------------------------------------------------
                                 Maximum  Time of Max   Maximum    Max/    Max/
                                  |Flow|   Occurrence   |Veloc|    Full    Full
  Link                 Type          LPS  days hr:min     m/sec    Flow   Depth
  -----------------------------------------------------------------------------
  WS02003066WSF200     CONDUIT     50.24     0  04:19      1.45    0.01    0.07
  WS02006287WS02006284 CONDUIT     15.27     0  02:27      0.58    0.01    0.07
  WS02006284WS02006280 CONDUIT     15.36     0  02:28      0.85    0.01    0.06
  WS02006280WS02006229 CONDUIT     15.36     0  02:28      1.36    0.00    0.04
  WS02006229WS02006228 CONDUIT     95.52     0  00:06      0.85    0.32    0.46
  WS02006256WS02006235 CONDUIT    177.52     0  00:01      2.73    1.88    1.00
  WS02006253WS02006251 CONDUIT      1.27     0  02:28      0.12    0.00    0.06
  WS02006252WS02006251 CONDUIT      0.00     0  00:00      0.00    0.00    0.00
  WS02006251WS02006249 CONDUIT      1.35     0  02:31      0.14    0.00    0.06
  WS02006249WS02006248 CONDUIT      1.33     0  02:35      0.19    0.01    0.05
  WS02006248WS02006247 CONDUIT      1.33     0  02:35      0.22    0.00    0.04
  WS02006247WS02006245 CONDUIT      1.33     0  02:38      0.16    0.01    0.05
  WS02006245WS02006243 CONDUIT      1.33     0  02:39      0.24    0.00    0.05
  WS02006243WS02006242 CONDUIT     10.32     0  00:06      0.24    0.02    0.18
  WS02006242WS02006240 CONDUIT     31.17     0  00:04      0.67    0.12    0.28
  WS02006240WS02006239 CONDUIT     43.67     0  00:02      0.60    0.14    0.29
  WS02006239WS02006238 CONDUIT     75.77     0  00:01      0.69    0.24    0.42
  WS02006238WS02006235 CONDUIT     96.52     0  00:00      1.32    0.22    0.48
  WS02006235WS02006234 CONDUIT    124.98     0  00:03      0.94    1.32    0.41
  WS02006234WS02006232 CONDUIT    113.53     0  00:03      1.17    0.23    0.49
  WS02006232WS02006231 CONDUIT     99.48     0  00:05      0.64    0.21    0.48
  WS02006231WS02006230 CONDUIT     93.47     0  00:05      0.82    1.42    0.34
  WS02006230WS02006229 CONDUIT    101.26     0  00:06      0.86    2.25    0.45
  WS02006228WS02006109 CONDUIT     93.18     0  00:06      0.76    0.41    0.51
  WS02006116WS02004401 CONDUIT     50.63     0  04:13      0.45    0.07    0.40
  WS02006115WS02006116 CONDUIT     50.69     0  04:11      0.56    0.07    0.30
  WS02006113WS02006111 CONDUIT     50.87     0  04:07      1.14    0.06    0.14
  WS02006112WS02006115 CONDUIT     50.78     0  04:10      0.17    0.03    0.41
  WS02006111WS02006112 CONDUIT     50.87     0  04:08      0.96    0.02    0.38
  WS02006110WS02006113 CONDUIT     50.87     0  04:07      0.30    0.05    0.37
  WS02006109WS02006110 CONDUIT     57.51     0  00:07      0.51    0.11    0.49
  WS02004411WS02004412 CONDUIT     50.39     0  04:17      0.44    0.07    0.29
  WS02004401WS02004402 CONDUIT     50.58     0  04:13      0.48    0.06    0.44
  WS02004413WS02003067 CONDUIT     50.24     0  04:19      0.27    0.02    0.29
  WS02004412WS02004413 CONDUIT     50.31     0  04:18      0.38    0.03    0.39
  WS02004410WS02004411 CONDUIT     50.47     0  04:17      0.39    0.07    0.26
  WS02004409WS02004410 CONDUIT     50.55     0  04:16      0.41    0.07    0.22
  WS02004407WS02004409 CONDUIT     50.63     0  04:15      0.69    0.02    0.15
  WS02004406WS02004407 CONDUIT     50.64     0  04:15      0.21    0.02    0.34
  WS02004405WS02004406 CONDUIT     50.66     0  04:14      0.40    0.10    0.58
  WS02004404WS02004405 CONDUIT     50.65     0  04:14      0.49    0.50    0.57
  WS02004403WS02004404 CONDUIT     50.51     0  04:14      0.52    0.04    0.53
  WS02004402WS02004403 CONDUIT     50.54     0  04:14      0.52    0.07    0.47
  WS02004139WS02001211 CONDUIT    380.34     0  04:40      0.69    0.48    0.57
  WS02004138WS02004139 CONDUIT    380.03     0  04:20      2.94    0.08    0.42
  WS02003067WS02003066 CONDUIT     50.24     0  04:19      0.28    0.02    0.21
  WS02001213WS02003059 CONDUIT    387.78     0  04:39      0.68    0.64    0.68
  WS02001212WS02001213 CONDUIT    387.73     0  04:39      1.32    0.60    0.40
  WS02001211WS02001212 CONDUIT    387.71     0  04:40      0.78    0.30    0.61
  WS02003072WS02003073 CONDUIT    450.85     0  04:29      1.34    0.97    0.34
  WS02003069WS02003072 CONDUIT    450.85     0  04:28      1.28    0.22    0.35
  WS02003060WS02003069 CONDUIT    450.53     0  04:27      1.56    0.18    0.30
  WS02003059WS02003060 CONDUIT    387.84     0  04:38      0.92    0.25    0.53
  HS02004901HS02004770 CONDUIT      0.25     0  02:52      0.03    0.00    0.13
  HS02004876HS02004881 CONDUIT      1.06     0  02:29      0.09    0.01    0.02
  HS02004870HS02004876 CONDUIT      0.80     0  02:21      0.07    0.00    0.02
  HS02004842HS02004848 CONDUIT      0.37     0  02:21      0.00    0.00    0.24
  HS02004837HS02004842 CONDUIT      4.47     0  00:03      0.41    0.00    0.25
  HS02004830HS02004837 CONDUIT      7.27     0  02:21      0.27    0.01    0.04
  HS02004824HS02004830 CONDUIT      7.42     0  02:22      0.31    0.01    0.03
  HS02004817HS02004824 CONDUIT      8.02     0  02:25      0.17    0.00    0.31
  HS02004770HS02004777 CONDUIT      1.07     0  02:52      0.03    0.00    0.14
  HS02004799HS02004480 CONDUIT      5.19     0  02:19      0.09    0.01    0.08
  HS02004792HS02004799 CONDUIT      4.83     0  02:15      0.23    0.00    0.07
  HS02004788HS02004792 CONDUIT      2.42     0  03:26      0.25    0.00    0.02
  HS02004785HS02004788 CONDUIT      0.58     0  03:32      0.05    0.00    0.02
  HS02004777HS02004785 CONDUIT      0.70     0  02:58      0.07    0.00    0.09
  HS02004480HS02004478 CONDUIT      6.08     0  02:26      0.21    0.03    0.04
  HS02004479HS02004480 CONDUIT      2.69     0  01:43      0.15    0.00    0.09
  HS02004862HS02004870 CONDUIT      0.46     0  02:24      0.10    0.00    0.01
  HS02004848HS02004852 CONDUIT      0.17     0  02:36      0.00    0.00    0.00
  HS02004856HS02004862 CONDUIT      0.16     0  03:29      0.04    0.00    0.01
  HS02004852HS02004856 CONDUIT      0.16     0  02:43      0.01    0.00    0.05
  HS02004802HS02004478 CONDUIT      9.21     0  02:29      0.10    0.01    0.13
  HS02004478WS02006287 CONDUIT     15.27     0  02:27      0.38    0.00    0.04
  HS02004817HS02004807 CONDUIT      8.62     0  02:28      0.05    0.01    0.38
  HS02004807HS02004802 CONDUIT      9.21     0  02:27      0.19    0.02    0.17
  YS02001759YS02001757 CONDUIT      2.73     0  03:16      0.12    0.00    0.64
  YS02001762YS02001759 CONDUIT      2.57     0  04:16      0.17    0.00    0.57
  YS02001765YS02001762 CONDUIT      1.94     0  02:20      0.20    0.00    0.53
  YS02001770YS02001767 CONDUIT      2.37     0  02:37      0.15    0.01    0.46
  YS02001774YS02001770 CONDUIT      1.66     0  03:52      0.11    0.00    0.48
  YS02001779YS02001774 CONDUIT      0.75     0  04:38      0.01    0.00    0.40
  YS02001649YS02001757 CONDUIT      2.61     0  04:15      0.09    0.00    0.63
  YS02001767YS02001765 CONDUIT      2.26     0  02:23      0.22    0.00    0.49
  YS02006561YS02001783 CONDUIT     12.91     0  03:39      0.75    0.01    0.08
  YS02001783YS02001784 CONDUIT     12.90     0  03:42      0.44    0.02    0.11
  YS02001784YS02001785 CONDUIT     13.96     0  03:41      0.41    0.03    0.12
  YS02001788YS02001790 CONDUIT     14.08     0  03:42      0.74    0.01    0.08
  YS02001790YS02001791 CONDUIT     14.23     0  03:44      0.84    0.02    0.07
  YS02001791YS02001793 CONDUIT     14.34     0  03:40      1.55    0.01    0.05
  YS02001910YS02001907 CONDUIT      5.89     0  03:19      0.49    0.00    0.43
  YS02001786YS02001788 CONDUIT     14.01     0  03:41      0.60    0.03    0.09
  YS02001915YS02001910 CONDUIT      6.35     0  03:03      0.44    0.00    0.23
  YS02001918YS02001915 CONDUIT      3.81     0  03:12      0.44    0.00    0.08
  YS02001923YS02001920 CONDUIT      0.94     0  03:08      0.05    0.00    0.06
  YS02001926YS02001923 CONDUIT      0.91     0  03:08      0.13    0.00    0.03
  YS02001929YS02001926 CONDUIT      0.86     0  03:01      0.10    0.00    0.03
  YS02001920YS02001918 CONDUIT      3.81     0  03:11      0.16    0.00    0.07
  YS02001629YS02163301 CONDUIT      1.66     0  04:04      0.03    0.00    0.42
  YS02001619YS02001622 CONDUIT      1.97     0  03:01      0.23    0.00    0.04
  YS02001622YS02001625 CONDUIT      2.64     0  03:51      0.12    0.00    0.20
  YS02001625YS02001629 CONDUIT      1.66     0  04:00      0.02    0.00    0.19
  YS02163301YS02001633 CONDUIT      1.62     0  07:34      0.02    0.00    0.47
  YS02163601YS02164001 CONDUIT      2.33     0  04:05      0.02    0.00    0.53
  YS02164001YS02001641 CONDUIT      2.59     0  03:16      0.06    0.00    0.51
  YS02001641YS02001644 CONDUIT      3.43     0  03:16      0.03    0.01    0.52
  YS02001647YS02001649 CONDUIT      3.12     0  03:16      0.05    0.00    0.46
  YS02006553YS02006556 CONDUIT      9.40     0  03:38      0.18    0.01    0.52
  YS02006556YS02006558 CONDUIT      9.34     0  03:45      0.07    0.01    0.55
  YSB6556YSB1171       CONDUIT      2.09     0  01:22      0.03    0.00    0.36
  YS02001907YS02006553 CONDUIT      9.43     0  03:38      0.06    0.01    0.60
  YS02006558YS02006561 CONDUIT     12.92     0  03:38      0.90    0.03    0.10
  YS02001633YS02163601 CONDUIT      2.80     0  04:04      0.06    0.00    0.52
  YS02001644YS02001647 CONDUIT      2.52     0  03:17      0.05    0.00    0.44
  YS02001745YS02001748 CONDUIT      2.24     0  03:01      0.60    0.00    0.02
  YS02001748YS02001751 CONDUIT      2.28     0  03:01      0.41    0.00    0.05
  YS02001751YS02001754 CONDUIT      2.29     0  03:02      0.54    0.00    0.19
  YS02001754YS02001757 CONDUIT      2.63     0  04:10      0.33    0.00    0.52
  YS02001882YS02001884 CONDUIT      0.44     0  02:31      0.04    0.00    0.15
  YS02001884YS02001887 CONDUIT      1.44     0  02:26      0.02    0.00    0.24
  YS02001890YS02001895 CONDUIT      3.77     0  03:30      0.03    0.00    0.22
  YS02001895YS02001898 CONDUIT      3.72     0  03:37      0.17    0.01    0.08
  YS02001898YS02001901 CONDUIT      3.77     0  03:31      0.04    0.00    0.17
  YS02001901YS02001904 CONDUIT      3.77     0  03:32      0.15    0.01    0.22
  YS02001904YS02001907 CONDUIT      3.75     0  03:35      0.02    0.00    0.38
  YS02001887YS02001890 CONDUIT      3.95     0  03:18      0.10    0.01    0.30
  YS02001652YS02001649 CONDUIT      3.00     0  03:02      0.21    0.00    0.46
  YS02001655YS02001652 CONDUIT      3.00     0  03:01      0.54    0.00    0.22
  YS02001658YS02001655 CONDUIT      2.84     0  03:01      0.46    0.00    0.06
  YS02001661YS02001658 CONDUIT      2.84     0  03:00      0.52    0.00    0.03
  YS02001664YS02001661 CONDUIT      2.84     0  02:59      0.15    0.00    0.06
  YSB1154YSB6556       CONDUIT      1.59     0  01:15      0.19    0.00    0.25
  YSB1174YSB1171       CONDUIT      1.05     0  01:17      0.02    0.00    0.37
  YSB1171HS02004479    CONDUIT      2.64     0  01:42      0.54    0.00    0.26
  HS02004881HS02006253 CONDUIT      1.23     0  02:27      0.00    0.00    0.00
  YS02001793JiankangQianchi CONDUIT     14.66     0  03:40      5.18    0.00    0.50
  YS02001757CaochengTiaoxuchi CONDUIT      0.00     0  00:00      0.00    0.00    0.35
  WSF200WS02003060     CONDUIT     50.23     0  04:19      0.48    0.01    0.18
  1                    CONDUIT    452.66     0  04:30      2.67    0.16    0.27
  2                    CONDUIT      0.00     0  00:00      0.00    0.00    0.00
  3                    CONDUIT    597.65     0  00:00     10.05    0.95    0.86
  4                    CONDUIT      0.00     0  00:00      0.00    0.00    0.00
  CC-Pump-1            PUMP         0.00     0  00:00              0.00
  CC-Pump-2            PUMP         0.00     0  00:00              0.00
  JK-Pump-1            PUMP       300.00     0  00:00              1.00
  JK-Pump-2            PUMP       300.00     0  00:00              1.00
  XR-Pump-1            PUMP        95.00     0  00:00              1.00
  XR-Pump-2            PUMP        95.00     0  00:20              1.00
  XR-Pump-3            PUMP        95.00     0  00:40              1.00
  XR-Pump-4            PUMP        95.00     0  00:00              1.00
  
  
  ***************************
  Flow Classification Summary
  ***************************
  
  -------------------------------------------------------------------------------------
                      Adjusted    ---------- Fraction of Time in Flow Class ---------- 
                       /Actual         Up    Down  Sub   Sup   Up    Down  Norm  Inlet 
  Conduit               Length    Dry  Dry   Dry   Crit  Crit  Crit  Crit  Ltd   Ctrl  
  -------------------------------------------------------------------------------------
  WS02003066WSF200        1.00   0.28  0.05  0.00  0.00  0.66  0.00  0.00  0.70  0.00
  WS02006287WS02006284    1.00   0.16  0.07  0.00  0.76  0.00  0.00  0.00  0.81  0.00
  WS02006284WS02006280    1.00   0.20  0.00  0.00  0.00  0.00  0.00  0.80  0.00  0.00
  WS02006280WS02006229    1.00   0.20  0.00  0.00  0.00  0.00  0.00  0.80  0.00  0.00
  WS02006229WS02006228    1.00   0.00  0.00  0.00  0.92  0.00  0.00  0.08  0.00  0.00
  WS02006256WS02006235    1.00   0.00  0.00  0.00  0.98  0.02  0.00  0.00  0.00  0.00
  WS02006253WS02006251    1.00   0.12  0.06  0.00  0.81  0.00  0.01  0.00  0.00  0.00
  WS02006252WS02006251    1.00   1.00  0.00  0.00  0.00  0.00  0.00  0.00  0.00  0.00
  WS02006251WS02006249    1.00   0.00  0.00  0.00  1.00  0.00  0.00  0.00  0.98  0.00
  WS02006249WS02006248    1.00   0.01  0.08  0.00  0.00  0.00  0.91  0.00  0.00  0.00
  WS02006248WS02006247    1.00   0.09  0.00  0.00  0.86  0.00  0.00  0.05  0.88  0.00
  WS02006247WS02006245    1.00   0.09  0.00  0.00  0.82  0.00  0.00  0.08  0.00  0.00
  WS02006245WS02006243    1.00   0.08  0.00  0.00  0.72  0.00  0.00  0.20  0.01  0.00
  WS02006243WS02006242    1.00   0.05  0.02  0.00  0.93  0.00  0.00  0.00  0.98  0.00
  WS02006242WS02006240    1.00   0.03  0.00  0.00  0.97  0.00  0.00  0.00  0.00  0.00
  WS02006240WS02006239    1.00   0.01  0.00  0.00  0.66  0.00  0.00  0.32  0.32  0.00
  WS02006239WS02006238    1.00   0.00  0.00  0.00  0.99  0.00  0.00  0.00  0.01  0.00
  WS02006238WS02006235    1.00   0.00  0.00  0.00  0.99  0.01  0.00  0.00  0.00  0.00
  WS02006235WS02006234    1.00   0.00  0.00  0.00  0.65  0.00  0.35  0.00  0.00  0.00
  WS02006234WS02006232    1.00   0.00  0.00  0.00  0.98  0.02  0.00  0.00  0.10  0.00
  WS02006232WS02006231    1.00   0.00  0.02  0.00  0.95  0.00  0.03  0.00  0.00  0.00
  WS02006231WS02006230    1.00   0.02  0.00  0.00  0.00  0.00  0.98  0.00  0.00  0.00
  WS02006230WS02006229    1.00   0.00  0.00  0.00  0.92  0.00  0.00  0.08  0.01  0.00
  WS02006228WS02006109    1.00   0.01  0.00  0.00  0.98  0.00  0.00  0.02  0.00  0.00
  WS02006116WS02004401    1.00   0.10  0.00  0.00  0.90  0.00  0.00  0.00  0.00  0.00
  WS02006115WS02006116    1.00   0.10  0.00  0.00  0.84  0.00  0.00  0.06  0.01  0.00
  WS02006113WS02006111    1.00   0.09  0.00  0.00  0.00  0.91  0.00  0.00  0.00  0.00
  WS02006112WS02006115    1.00   0.09  0.01  0.00  0.89  0.00  0.01  0.00  0.00  0.00
  WS02006111WS02006112    1.00   0.09  0.00  0.00  0.90  0.00  0.00  0.00  0.98  0.00
  WS02006110WS02006113    1.00   0.08  0.01  0.00  0.91  0.00  0.00  0.00  0.00  0.00
  WS02006109WS02006110    1.00   0.00  0.07  0.00  0.91  0.00  0.01  0.00  0.00  0.00
  WS02004411WS02004412    1.00   0.25  0.00  0.00  0.75  0.00  0.00  0.00  0.00  0.00
  WS02004401WS02004402    1.00   0.10  0.00  0.00  0.90  0.00  0.00  0.00  0.00  0.00
  WS02004413WS02003067    1.00   0.25  0.06  0.00  0.00  0.00  0.69  0.00  0.00  0.00
  WS02004412WS02004413    1.00   0.25  0.00  0.00  0.75  0.00  0.00  0.00  0.03  0.00
  WS02004410WS02004411    1.00   0.24  0.00  0.00  0.76  0.00  0.00  0.00  0.02  0.00
  WS02004409WS02004410    1.00   0.24  0.00  0.00  0.76  0.00  0.00  0.00  0.02  0.00
  WS02004407WS02004409    1.00   0.24  0.00  0.00  0.75  0.01  0.00  0.00  0.80  0.00
  WS02004406WS02004407    1.00   0.01  0.23  0.00  0.76  0.00  0.00  0.00  0.00  0.00
  WS02004405WS02004406    1.00   0.00  0.00  0.00  1.00  0.00  0.00  0.00  0.02  0.00
  WS02004404WS02004405    1.00   0.00  0.00  0.00  1.00  0.00  0.00  0.00  0.00  0.00
  WS02004403WS02004404    1.00   0.00  0.11  0.00  0.89  0.00  0.00  0.00  0.02  0.00
  WS02004402WS02004403    1.00   0.11  0.00  0.00  0.89  0.00  0.00  0.00  0.00  0.00
  WS02004139WS02001211    1.00   0.00  0.00  0.00  0.97  0.00  0.03  0.00  0.00  0.00
  WS02004138WS02004139    1.00   0.00  0.00  0.00  0.93  0.06  0.00  0.01  1.00  0.00
  WS02003067WS02003066    1.00   0.31  0.02  0.00  0.67  0.00  0.00  0.00  0.00  0.00
  WS02001213WS02003059    1.00   0.02  0.03  0.00  0.96  0.00  0.00  0.00  0.00  0.00
  WS02001212WS02001213    1.00   0.03  0.01  0.00  0.04  0.00  0.92  0.00  0.00  0.00
  WS02001211WS02001212    1.00   0.00  0.03  0.00  0.97  0.00  0.00  0.00  0.00  0.00
  WS02003072WS02003073    1.00   0.00  0.00  0.00  0.00  0.00  0.00  1.00  0.00  0.00
  WS02003069WS02003072    1.00   0.00  0.00  0.00  0.96  0.04  0.00  0.00  0.89  0.00
  WS02003060WS02003069    1.00   0.00  0.00  0.00  0.93  0.07  0.00  0.00  0.52  0.00
  WS02003059WS02003060    1.00   0.00  0.00  0.00  0.97  0.03  0.00  0.00  0.01  0.00
  HS02004901HS02004770    1.00   0.19  0.01  0.00  0.80  0.00  0.00  0.00  0.05  0.00
  HS02004876HS02004881    1.00   0.09  0.00  0.00  0.91  0.00  0.00  0.00  0.00  0.00
  HS02004870HS02004876    1.00   0.04  0.00  0.00  0.95  0.01  0.00  0.00  0.95  0.00
  HS02004842HS02004848    1.00   0.00  0.21  0.00  0.79  0.00  0.00  0.00  0.84  0.00
  HS02004837HS02004842    1.00   0.00  0.00  0.00  0.95  0.05  0.00  0.00  0.11  0.00
  HS02004830HS02004837    1.00   0.00  0.00  0.00  0.99  0.01  0.00  0.00  0.99  0.00
  HS02004824HS02004830    1.00   0.00  0.00  0.00  1.00  0.00  0.00  0.00  0.00  0.00
  HS02004817HS02004824    1.00   0.00  0.00  0.00  1.00  0.00  0.00  0.00  1.00  0.00
  HS02004770HS02004777    1.00   0.00  0.20  0.00  0.80  0.00  0.00  0.00  0.08  0.00
  HS02004799HS02004480    1.00   0.02  0.08  0.00  0.73  0.00  0.16  0.00  0.00  0.00
  HS02004792HS02004799    1.00   0.00  0.00  0.00  0.93  0.07  0.00  0.00  0.98  0.00
  HS02004788HS02004792    1.00   0.00  0.00  0.00  0.92  0.08  0.00  0.00  0.98  0.00
  HS02004785HS02004788    1.00   0.00  0.00  0.00  1.00  0.00  0.00  0.00  0.00  0.00
  HS02004777HS02004785    1.00   0.00  0.00  0.00  1.00  0.00  0.00  0.00  0.31  0.00
  HS02004480HS02004478    1.00   0.24  0.00  0.00  0.74  0.00  0.02  0.00  0.00  0.00
  HS02004479HS02004480    1.00   0.11  0.00  0.00  0.89  0.00  0.00  0.00  0.17  0.00
  HS02004862HS02004870    1.00   0.00  0.00  0.00  1.00  0.00  0.00  0.00  0.06  0.00
  HS02004848HS02004852    1.00   0.21  0.00  0.00  0.79  0.00  0.00  0.00  0.65  0.00
  HS02004856HS02004862    1.00   0.00  0.45  0.00  0.55  0.00  0.00  0.00  0.59  0.00
  HS02004852HS02004856    1.00   0.20  0.07  0.00  0.74  0.00  0.00  0.00  0.78  0.00
  HS02004802HS02004478    1.00   0.20  0.03  0.00  0.77  0.00  0.00  0.00  0.00  0.00
  HS02004478WS02006287    1.00   0.24  0.00  0.00  0.76  0.00  0.00  0.00  0.81  0.00
  HS02004817HS02004807    1.00   0.00  0.20  0.00  0.80  0.00  0.00  0.00  0.00  0.00
  HS02004807HS02004802    1.00   0.20  0.00  0.00  0.80  0.00  0.00  0.01  0.01  0.00
  YS02001759YS02001757    1.00   0.00  0.00  0.00  1.00  0.00  0.00  0.00  0.17  0.00
  YS02001762YS02001759    1.00   0.00  0.01  0.00  0.99  0.00  0.00  0.00  0.08  0.00
  YS02001765YS02001762    1.00   0.00  0.00  0.00  1.00  0.00  0.00  0.00  0.28  0.00
  YS02001770YS02001767    1.00   0.00  0.00  0.00  1.00  0.00  0.00  0.00  0.00  0.00
  YS02001774YS02001770    1.00   0.02  0.27  0.00  0.72  0.00  0.00  0.00  0.08  0.00
  YS02001779YS02001774    1.00   0.00  0.00  0.00  1.00  0.00  0.00  0.00  0.46  0.00
  YS02001649YS02001757    1.00   0.00  0.01  0.00  0.99  0.00  0.00  0.00  0.20  0.00
  YS02001767YS02001765    1.00   0.00  0.00  0.00  1.00  0.00  0.00  0.00  0.02  0.00
  YS02006561YS02001783    1.00   0.38  0.00  0.00  0.00  0.62  0.00  0.00  0.65  0.00
  YS02001783YS02001784    1.00   0.00  0.38  0.00  0.62  0.00  0.00  0.00  0.66  0.00
  YS02001784YS02001785    1.00   0.00  0.00  0.00  1.00  0.00  0.00  0.00  0.35  0.00
  YS02001788YS02001790    1.00   0.00  0.00  0.00  0.41  0.59  0.00  0.00  1.00  0.00
  YS02001790YS02001791    1.00   0.00  0.00  0.00  0.08  0.92  0.00  0.00  0.00  0.00
  YS02001791YS02001793    1.00   0.00  0.00  0.00  0.00  0.99  0.00  0.00  0.00  0.00
  YS02001910YS02001907    1.00   0.01  0.00  0.00  0.90  0.00  0.00  0.09  0.13  0.00
  YS02001786YS02001788    1.00   0.00  0.00  0.00  1.00  0.00  0.00  0.00  0.00  0.00
  YS02001915YS02001910    1.00   0.00  0.00  0.00  0.99  0.01  0.00  0.00  0.31  0.00
  YS02001918YS02001915    1.00   0.00  0.04  0.00  0.93  0.02  0.00  0.00  0.75  0.00
  YS02001923YS02001920    1.00   0.00  0.00  0.00  1.00  0.00  0.00  0.00  1.00  0.00
  YS02001926YS02001923    1.00   0.00  0.14  0.00  0.00  0.00  0.86  0.00  0.00  0.00
  YS02001929YS02001926    1.00   0.00  0.20  0.00  0.80  0.00  0.00  0.00  0.86  0.00
  YS02001920YS02001918    1.00   0.00  0.04  0.00  0.96  0.00  0.00  0.00  0.00  0.00
  YS02001629YS02163301    1.00   0.32  0.03  0.00  0.65  0.00  0.00  0.00  0.00  0.00
  YS02001619YS02001622    1.00   0.19  0.00  0.00  0.81  0.00  0.00  0.00  0.46  0.00
  YS02001622YS02001625    1.00   0.20  0.00  0.00  0.80  0.00  0.00  0.00  0.29  0.00
  YS02001625YS02001629    1.00   0.21  0.28  0.00  0.06  0.00  0.45  0.00  0.00  0.00
  YS02163301YS02001633    1.00   0.00  0.32  0.00  0.68  0.00  0.00  0.00  0.00  0.00
  YS02163601YS02164001    1.00   0.00  0.15  0.00  0.85  0.00  0.00  0.00  0.00  0.00
  YS02164001YS02001641    1.00   0.06  0.09  0.00  0.85  0.00  0.00  0.00  0.07  0.00
  YS02001641YS02001644    1.00   0.00  0.05  0.00  0.95  0.00  0.00  0.00  0.00  0.00
  YS02001647YS02001649    1.00   0.01  0.41  0.00  0.58  0.00  0.00  0.00  0.03  0.00
  YS02006553YS02006556    1.00   0.08  0.00  0.00  0.92  0.00  0.00  0.00  0.03  0.00
  YS02006556YS02006558    1.00   0.00  0.02  0.00  0.98  0.00  0.00  0.00  0.00  0.00
  YSB6556YSB1171          1.00   0.11  0.07  0.00  0.82  0.00  0.00  0.00  0.00  0.00
  YS02001907YS02006553    1.00   0.02  0.07  0.00  0.91  0.00  0.00  0.00  0.00  0.00
  YS02006558YS02006561    1.00   0.38  0.00  0.00  0.01  0.61  0.00  0.00  0.00  0.00
  YS02001633YS02163601    1.00   0.00  0.06  0.00  0.94  0.00  0.00  0.00  0.21  0.00
  YS02001644YS02001647    1.00   0.00  0.42  0.00  0.58  0.00  0.00  0.00  0.00  0.00
  YS02001745YS02001748    1.00   0.00  0.00  0.00  0.00  0.00  0.00  1.00  0.00  0.00
  YS02001748YS02001751    1.00   0.00  0.00  0.00  0.69  0.31  0.00  0.00  0.62  0.00
  YS02001751YS02001754    1.00   0.00  0.00  0.00  0.50  0.01  0.00  0.49  0.37  0.00
  YS02001754YS02001757    1.00   0.00  0.00  0.00  0.95  0.05  0.00  0.00  0.40  0.00
  YS02001882YS02001884    1.00   0.29  0.03  0.00  0.68  0.00  0.00  0.00  0.00  0.00
  YS02001884YS02001887    1.00   0.13  0.05  0.00  0.83  0.00  0.00  0.00  0.00  0.00
  YS02001890YS02001895    1.00   0.02  0.32  0.00  0.66  0.00  0.00  0.00  0.00  0.00
  YS02001895YS02001898    1.00   0.34  0.01  0.00  0.61  0.00  0.03  0.00  0.00  0.00
  YS02001898YS02001901    1.00   0.29  0.06  0.00  0.65  0.00  0.00  0.00  0.01  0.00
  YS02001901YS02001904    1.00   0.29  0.00  0.00  0.71  0.00  0.00  0.00  0.01  0.00
  YS02001904YS02001907    1.00   0.02  0.27  0.00  0.71  0.00  0.00  0.00  0.00  0.00
  YS02001887YS02001890    1.00   0.00  0.02  0.00  0.90  0.00  0.08  0.00  0.00  0.00
  YS02001652YS02001649    1.00   0.00  0.00  0.00  1.00  0.00  0.00  0.00  0.39  0.00
  YS02001655YS02001652    1.00   0.00  0.00  0.00  0.53  0.01  0.00  0.46  0.34  0.00
  YS02001658YS02001655    1.00   0.00  0.29  0.00  0.24  0.47  0.00  0.00  0.75  0.00
  YS02001661YS02001658    1.00   0.29  0.00  0.00  0.00  0.71  0.00  0.00  0.73  0.00
  YS02001664YS02001661    1.00   0.19  0.00  0.00  0.81  0.00  0.00  0.00  0.86  0.00
  YSB1154YSB6556          1.00   0.18  0.00  0.00  0.82  0.00  0.00  0.00  0.03  0.00
  YSB1174YSB1171          1.00   0.12  0.04  0.00  0.84  0.00  0.00  0.00  0.00  0.00
  YSB1171HS02004479       1.00   0.11  0.00  0.00  0.88  0.00  0.00  0.01  0.14  0.00
  HS02004881HS02006253    1.00   0.12  0.00  0.00  0.00  0.00  0.00  0.88  0.00  0.00
  YS02001793JiankangQianchi    1.00   0.00  0.01  0.00  0.07  0.92  0.00  0.00  0.04  0.00
  YS02001757CaochengTiaoxuchi    1.00   0.00  1.00  0.00  0.00  0.00  0.00  0.00  0.00  0.00
  WSF200WS02003060        1.00   0.00  0.28  0.00  0.72  0.00  0.00  0.00  0.88  0.00
  1                       1.00   0.00  0.00  0.00  0.00  1.00  0.00  0.00  0.37  0.00
  2                       1.00   1.00  0.00  0.00  0.00  0.00  0.00  0.00  0.00  0.00
  3                       1.00   0.92  0.00  0.00  0.00  0.08  0.00  0.00  0.00  0.00
  4                       1.00   1.00  0.00  0.00  0.00  0.00  0.00  0.00  0.00  0.00
  
  
  *************************
  Conduit Surcharge Summary
  *************************
  
  ----------------------------------------------------------------------------
                                                           Hours        Hours 
                         --------- Hours Full --------   Above Full   Capacity
  Conduit                Both Ends  Upstream  Dnstream   Normal Flow   Limited
  ----------------------------------------------------------------------------
  WS02006256WS02006235        0.04      0.04      7.38      0.08         0.01
  WS02006235WS02006234        0.01      0.01      0.01      0.06         0.01
  WS02006231WS02006230        0.01      0.01      0.01      0.04         0.01
  WS02006230WS02006229        0.01      0.01      0.01      0.10         0.01
  YS02001793JiankangQianchi        0.01      0.01      0.04      0.01         0.01
  3                           0.01      0.01      0.01      0.01         0.01
  
  
  ***************
  Pumping Summary
  ***************
  
  ---------------------------------------------------------------------------------------------------------
                                                  Min       Avg       Max     Total     Power    % Time Off
                        Percent   Number of      Flow      Flow      Flow    Volume     Usage    Pump Curve
  Pump                 Utilized   Start-Ups       LPS       LPS       LPS  10^6 ltr     Kw-hr    Low   High
  ---------------------------------------------------------------------------------------------------------
  CC-Pump-1                0.00           0      0.00      0.00      0.00     0.000      0.00    0.0    0.0
  CC-Pump-2                0.00           0      0.00      0.00      0.00     0.000      0.00    0.0    0.0
  JK-Pump-1               74.45          10      0.00     38.18    300.00     0.244      4.17    0.0    0.0
  JK-Pump-2               80.84           8      0.00     36.02    300.00     0.253      4.32    0.0    0.0
  XR-Pump-1               85.10           7      0.00     68.96     95.00     1.596     23.64    0.0    0.0
  XR-Pump-2               76.59           6      0.00     69.54     95.00     1.510     22.85    0.0    0.0
  XR-Pump-3               76.56           5      0.00     62.91     95.00     1.368     20.02    0.0    0.0
  XR-Pump-4               80.83           8      0.00     69.88     95.00     1.539     24.09    0.0    0.0
  

  Analysis begun on:  Tue Dec 21 11:06:33 2021
  Analysis ended on:  Tue Dec 21 11:06:33 2021
  Total elapsed time: < 1 sec