
  EPA STORM WATER MANAGEMENT MODEL - VERSION 5.1 (Build 5.3.0.dev0)
  --------------------------------------------------------------

  WARNING 04: minimum elevation drop used for Conduit WS02004404WS02004405
  WARNING 03: negative offset ignored for Link YS02001904YS02001907
  
  *********************************************************
  NOTE: The summary statistics displayed in this report are
  based on results found at every computational time step,  
  not just on results from each reporting time step.
  *********************************************************
  
  ****************
  Analysis Options
  ****************
  Flow Units ............... LPS
  Process Models:
    Rainfall/Runoff ........ YES
    RDII ................... NO
    Snowmelt ............... NO
    Groundwater ............ NO
    Flow Routing ........... YES
    Ponding Allowed ........ NO
    Water Quality .......... NO
  Infiltration Method ...... HORTON
  Flow Routing Method ...... DYNWAVE
  Surcharge Method ......... EXTRAN
  Starting Date ............ 08/28/2015 08:00:00
  Ending Date .............. 08/28/2015 15:50:00
  Antecedent Dry Days ...... 8.0
  Report Time Step ......... 00:01:00
  Wet Time Step ............ 00:01:00
  Dry Time Step ............ 00:01:00
  Routing Time Step ........ 5.00 sec
  Variable Time Step ....... YES
  Maximum Trials ........... 8
  Number of Threads ........ 4
  Head Tolerance ........... 0.001500 m
  
  
  **************************        Volume         Depth
  Runoff Quantity Continuity     hectare-m            mm
  **************************     ---------       -------
  Total Precipitation ......         2.330         5.102
  Evaporation Loss .........         0.000         0.000
  Infiltration Loss ........         0.581         1.272
  Surface Runoff ...........         0.900         1.971
  Final Storage ............         0.849         1.860
  Continuity Error (%) .....        -0.018
  
  
  **************************        Volume        Volume
  Flow Routing Continuity        hectare-m      10^6 ltr
  **************************     ---------     ---------
  Dry Weather Inflow .......         0.616         6.165
  Wet Weather Inflow .......         0.900         8.996
  Groundwater Inflow .......         0.000         0.000
  RDII Inflow ..............         0.000         0.000
  External Inflow ..........         0.102         1.024
  External Outflow .........         1.547        15.472
  Flooding Loss ............         0.048         0.479
  Evaporation Loss .........         0.000         0.000
  Exfiltration Loss ........         0.000         0.000
  Initial Stored Volume ....         0.076         0.761
  Final Stored Volume ......         0.217         2.166
  Continuity Error (%) .....        -6.918
  
  
  *************************
  Highest Continuity Errors
  *************************
  Node JK-storage (-38.06%)
  Node HS02004842 (31.75%)
  Node YS02001884 (26.12%)
  Node YSB1171 (8.28%)
  Node YS02001774 (7.53%)
  
  
  ***************************
  Time-Step Critical Elements
  ***************************
  Link WS02006252WS02006251 (58.81%)
  Link 3 (31.15%)
  Link WS02006238WS02006235 (2.77%)
  Link WS02006280WS02006229 (1.99%)
  
  
  ********************************
  Highest Flow Instability Indexes
  ********************************
  Link WS02006113WS02006111 (42)
  Link WS02006111WS02006112 (25)
  Link WS02006110WS02006113 (3)
  Link YS02001751YS02001754 (3)
  Link YS02001767YS02001765 (3)
  
  
  *************************
  Routing Time Step Summary
  *************************
  Minimum Time Step           :     0.50 sec
  Average Time Step           :     0.94 sec
  Maximum Time Step           :     5.00 sec
  Percent in Steady State     :    -0.00
  Average Iterations per Step :     2.01
  Percent Not Converging      :     0.04
  
  
  ***************************
  Subcatchment Runoff Summary
  ***************************
  
  ------------------------------------------------------------------------------------------------------------------------------
                            Total      Total      Total      Total     Imperv       Perv      Total       Total     Peak  Runoff
                           Precip      Runon       Evap      Infil     Runoff     Runoff     Runoff      Runoff   Runoff   Coeff
  Subcatchment                 mm         mm         mm         mm         mm         mm         mm    10^6 ltr      LPS
  ------------------------------------------------------------------------------------------------------------------------------
  sub0                       5.10       0.00       0.00       0.36       3.48       0.00       3.48        0.00     1.20   0.682
  sub1                       5.10       0.00       0.00       0.56       3.29       0.00       3.29        0.02     6.06   0.644
  sub2                       5.10       0.00       0.00       1.89       2.31       0.00       2.31        0.02     5.32   0.453
  sub3                       5.10       0.00       0.00       1.89       2.28       0.00       2.28        0.05    10.83   0.446
  sub4                       5.10       0.00       0.00       0.56       3.15       0.00       3.15        0.07    12.04   0.618
  sub5                       5.10       0.00       0.00       0.36       3.43       0.00       3.43        0.04    10.78   0.673
  sub7                       5.10       0.00       0.00       0.46       3.39       0.00       3.39        0.01     3.87   0.664
  sub8                       5.10       0.00       0.00       0.46       3.38       0.00       3.38        0.02     6.78   0.662
  sub9                       5.10       0.00       0.00       0.46       3.38       0.00       3.38        0.02     5.02   0.662
  sub10                      5.10       0.00       0.00       0.41       3.40       0.00       3.40        0.04    10.80   0.667
  sub11                      5.10       0.00       0.00       0.41       3.42       0.00       3.42        0.04    12.78   0.670
  sub12                      5.10       0.00       0.00       0.66       3.25       0.00       3.25        0.03    11.00   0.637
  sub14                      5.10       0.00       0.00       0.46       3.38       0.00       3.38        0.03     9.80   0.662
  sub15                      5.10       0.00       0.00       1.53       2.59       0.00       2.59        0.04    13.26   0.508
  sub16                      5.10       0.00       0.00       1.68       2.50       0.00       2.50        0.03     9.62   0.490
  sub17                      5.10       0.00       0.00       1.63       2.54       0.00       2.54        0.02     7.75   0.497
  sub22                      5.10       0.00       0.00       2.19       2.12       0.00       2.12        0.13    43.78   0.416
  sub23                      5.10       0.00       0.00       1.89       2.34       0.00       2.34        0.11    37.34   0.460
  sub60                      5.10       0.00       0.00       0.61       2.17       0.00       2.17        0.66    58.39   0.426
  sub61                      5.10       0.00       0.00       0.87       2.36       0.00       2.36        0.73    74.03   0.462
  sub62                      5.10       0.00       0.00       0.41       2.52       0.00       2.52        0.77    75.41   0.493
  sub63                      5.10       0.00       0.00       1.48       2.11       0.00       2.11        0.64    69.41   0.413
  sub64                      5.10       0.00       0.00       0.77       2.08       0.00       2.08        0.63    55.41   0.407
  sub65                      5.10       0.00       0.00       0.66       2.10       0.00       2.10        0.65    56.17   0.412
  sub66                      5.10       0.00       0.00       1.48       1.82       0.00       1.82        0.56    50.96   0.357
  sub67                      5.10       0.00       0.00       0.41       2.80       0.00       2.80        0.86    97.83   0.549
  sub68                      5.10       0.00       0.00       0.71       2.52       0.00       2.52        0.77    82.08   0.493
  sub69                      5.10       0.00       0.00       0.77       2.75       0.00       2.75        0.64    82.58   0.539
  sub70                      5.10       2.80       0.00       2.69       3.28       0.00       3.28        0.75    63.61   0.415
  sub71                      5.10       0.00       0.00       0.41       2.40       0.00       2.40        0.57    52.44   0.470
  sub72                      5.10       0.00       0.00       0.36       1.64       0.00       1.64        0.33    24.24   0.322
  sub73                      5.10       3.20       0.00       2.82       3.28       0.00       3.28        0.77    54.28   0.395
  sub74                      5.10       0.00       0.00       3.83       0.83       0.00       0.83        0.33    46.31   0.163
  
  
  ******************
  Node Depth Summary
  ******************
  
  ---------------------------------------------------------------------------------
                                 Average  Maximum  Maximum  Time of Max    Reported
                                   Depth    Depth      HGL   Occurrence   Max Depth
  Node                 Type       Meters   Meters   Meters  days hr:min      Meters
  ---------------------------------------------------------------------------------
  WS02001211           JUNCTION     0.63     0.77     5.60     0  03:50        0.77
  WS02001212           JUNCTION     0.36     0.47     5.54     0  03:51        0.47
  WS02001213           JUNCTION     0.59     0.71     5.47     0  04:33        0.71
  WS02003069           JUNCTION     0.42     0.51     5.10     0  04:33        0.51
  WS02003072           JUNCTION     0.48     0.58     4.95     0  04:34        0.58
  WS02003073           JUNCTION     0.29     0.35     4.42     0  04:35        0.35
  WS02003060           JUNCTION     0.37     0.45     5.39     0  04:32        0.45
  WS02003066           JUNCTION     0.23     0.27     5.83     0  02:50        0.27
  WS02003059           JUNCTION     0.65     0.76     5.45     0  04:32        0.76
  WS02003067           JUNCTION     0.56     0.66     5.98     0  02:50        0.66
  WS02004401           JUNCTION     0.66     0.78     6.78     0  02:46        0.78
  WS02004402           JUNCTION     0.69     0.81     6.77     0  02:46        0.81
  WS02004403           JUNCTION     0.71     0.83     6.76     0  02:46        0.83
  WS02004404           JUNCTION     0.79     0.90     6.75     0  02:46        0.90
  WS02004406           JUNCTION     0.79     0.90     6.73     0  02:46        0.90
  WS02004409           JUNCTION     0.48     0.60     6.37     0  02:49        0.60
  WS02004410           JUNCTION     0.50     0.62     6.34     0  02:49        0.62
  WS02004411           JUNCTION     0.51     0.63     6.31     0  02:49        0.63
  WS02004412           JUNCTION     0.53     0.64     6.28     0  02:49        0.64
  WS02004413           JUNCTION     0.69     0.80     6.27     0  02:50        0.80
  WS02004405           JUNCTION     0.78     0.90     6.75     0  02:46        0.90
  WS02006109           JUNCTION     0.73     0.87     7.48     0  02:42        0.87
  WS02006110           JUNCTION     0.73     0.85     7.43     0  02:42        0.85
  WS02006111           JUNCTION     0.21     0.26     6.97     0  02:42        0.26
  WS02006112           JUNCTION     0.82     0.96     6.84     0  02:45        0.96
  WS02006113           JUNCTION     0.33     0.41     7.30     0  02:42        0.41
  WS02006115           JUNCTION     0.55     0.67     6.81     0  02:45        0.67
  WS02006116           JUNCTION     0.63     0.75     6.79     0  02:46        0.75
  WS02006230           JUNCTION     0.70     0.87     7.61     0  02:42        0.87
  WS02006231           JUNCTION     0.46     0.59     7.71     0  03:53        0.59
  WS02006232           JUNCTION     0.60     0.74     7.78     0  03:53        0.74
  WS02006234           JUNCTION     0.52     0.69     7.85     0  03:52        0.69
  WS02006235           JUNCTION     0.55     0.73     7.89     0  03:52        0.73
  WS02006238           JUNCTION     0.58     0.76     7.90     0  03:52        0.76
  WS02006240           JUNCTION     0.48     0.69     7.98     0  03:52        0.69
  WS02006242           JUNCTION     0.53     0.75     8.02     0  03:52        0.75
  WS02006243           JUNCTION     0.42     0.64     8.06     0  05:39        0.64
  WS02006245           JUNCTION     0.40     0.62     8.10     0  05:39        0.62
  WS02006247           JUNCTION     0.42     0.63     8.13     0  05:39        0.63
  WS02006248           JUNCTION     0.37     0.57     8.16     0  05:39        0.57
  WS02006249           JUNCTION     0.40     0.59     8.19     0  05:40        0.59
  WS02006239           JUNCTION     0.53     0.73     7.94     0  03:52        0.73
  WS02006251           JUNCTION     0.39     0.61     8.28     0  05:40        0.61
  WS02006252           JUNCTION     0.35     0.58     8.83     0  05:00        0.58
  WS02006253           JUNCTION     0.42     0.64     8.28     0  05:39        0.64
  WS02006256           JUNCTION     0.99     1.20     8.14     0  04:20        1.20
  WS02004138           JUNCTION     0.14     0.19     7.44     0  01:30        0.19
  WS02004407           JUNCTION     0.22     0.27     6.58     0  02:47        0.27
  WS02006228           JUNCTION     0.73     0.88     7.53     0  02:41        0.88
  WS02006229           JUNCTION     0.70     0.87     7.56     0  02:41        0.87
  WS02006280           JUNCTION     0.05     0.13     8.40     0  02:20        0.13
  WS02006284           JUNCTION     0.34     0.46     8.86     0  02:20        0.46
  WS02006287           JUNCTION     0.07     0.19     9.15     0  02:19        0.19
  WSF200               JUNCTION     0.21     0.28     5.51     0  02:50        0.28
  HS02004901           JUNCTION     0.11     0.21    10.04     0  02:17        0.21
  HS02004881           JUNCTION     0.01     0.02     9.05     0  02:19        0.02
  HS02004876           JUNCTION     0.03     0.10     9.13     0  02:18        0.10
  HS02004870           JUNCTION     0.01     0.04     9.32     0  02:19        0.04
  HS02004862           JUNCTION     0.01     0.04     9.43     0  02:20        0.04
  HS02004856           JUNCTION     0.07     0.10     9.53     0  02:19        0.10
  HS02004852           JUNCTION     0.01     0.02     9.54     0  02:21        0.02
  HS02004848           JUNCTION     0.01     0.02     9.62     0  02:18        0.02
  HS02004842           JUNCTION     0.32     0.35     9.62     0  02:18        0.35
  HS02004837           JUNCTION     0.03     0.04     9.62     0  02:18        0.04
  HS02004830           JUNCTION     0.04     0.06     9.53     0  02:19        0.06
  HS02004824           JUNCTION     0.02     0.04     9.44     0  02:22        0.04
  HS02004817           JUNCTION     0.42     0.51     9.36     0  02:20        0.51
  HS02004807           JUNCTION     0.11     0.18     9.35     0  02:20        0.18
  HS02004802           JUNCTION     0.15     0.22     9.35     0  02:20        0.22
  HS02004799           JUNCTION     0.09     0.23     9.44     0  02:18        0.23
  HS02004792           JUNCTION     0.02     0.09     9.61     0  02:17        0.09
  HS02004788           JUNCTION     0.02     0.06     9.96     0  02:18        0.06
  HS02004785           JUNCTION     0.03     0.12    10.02     0  02:18        0.12
  HS02004777           JUNCTION     0.13     0.24    10.03     0  02:18        0.24
  HS02004770           JUNCTION     0.10     0.21    10.04     0  02:18        0.21
  HS02004480           JUNCTION     0.06     0.18     9.42     0  02:18        0.18
  HS02004479           JUNCTION     0.10     0.22     9.42     0  02:18        0.22
  HS02004478           JUNCTION     0.05     0.11     9.34     0  02:19        0.11
  YS02001745           JUNCTION     0.07     0.10     7.62     0  03:01        0.10
  YS02001748           JUNCTION     0.16     0.32     7.40     0  04:56        0.31
  YS02001751           JUNCTION     0.33     0.51     7.39     0  04:58        0.51
  YS02001754           JUNCTION     0.58     0.79     7.40     0  04:57        0.79
  YS02001762           JUNCTION     0.77     0.96     7.36     0  04:55        0.95
  YS02001765           JUNCTION     0.72     0.91     7.36     0  04:59        0.91
  YS02001767           JUNCTION     0.69     0.88     7.37     0  04:56        0.87
  YS02001770           JUNCTION     0.68     0.86     7.35     0  04:57        0.86
  YS02001774           JUNCTION     0.75     0.93     7.35     0  04:58        0.93
  YS02001779           JUNCTION     0.50     0.68     7.36     0  04:57        0.67
  YS02001882           JUNCTION     0.26     0.40     7.11     0  02:53        0.40
  YS02001884           JUNCTION     0.35     0.50     7.11     0  02:53        0.50
  YS02001759           JUNCTION     0.80     0.99     7.36     0  04:57        0.99
  YS02001887           JUNCTION     0.43     0.58     7.11     0  02:53        0.58
  YS02001890           JUNCTION     0.46     0.61     7.11     0  02:54        0.61
  YS02001898           JUNCTION     0.23     0.36     7.10     0  02:54        0.36
  YS02001901           JUNCTION     0.35     0.49     7.10     0  02:54        0.49
  YS02001904           JUNCTION     0.33     0.46     7.09     0  02:55        0.46
  YS02001907           JUNCTION     0.65     0.81     7.10     0  02:55        0.81
  YS02001910           JUNCTION     0.44     0.59     7.10     0  02:55        0.59
  YS02001915           JUNCTION     0.25     0.38     7.09     0  02:55        0.38
  YS02001918           JUNCTION     0.07     0.09     7.15     0  03:03        0.09
  YS02001619           JUNCTION     0.29     0.43     7.36     0  04:56        0.43
  YS02001629           JUNCTION     0.63     0.81     7.36     0  04:58        0.80
  YS02001641           JUNCTION     0.74     0.92     7.36     0  04:57        0.92
  YS02001644           JUNCTION     0.74     0.93     7.36     0  04:57        0.92
  YS02001652           JUNCTION     0.59     0.78     7.38     0  04:55        0.78
  YS02001655           JUNCTION     0.36     0.54     7.39     0  04:58        0.53
  YS02001920           JUNCTION     0.16     0.19     7.20     0  03:03        0.19
  YS02001923           JUNCTION     0.06     0.07     7.33     0  03:02        0.07
  YS02001926           JUNCTION     0.13     0.16     7.60     0  03:01        0.16
  YS02001929           JUNCTION     0.06     0.08     7.77     0  03:01        0.08
  YS02001658           JUNCTION     0.12     0.24     7.38     0  04:56        0.24
  YS02001661           JUNCTION     0.13     0.18     7.59     0  02:46        0.18
  YS02001664           JUNCTION     0.06     0.10     8.03     0  02:46        0.10
  YS02001622           JUNCTION     0.31     0.45     7.35     0  04:57        0.45
  YS02001633           JUNCTION     0.72     0.90     7.36     0  04:58        0.90
  YS02001649           JUNCTION     0.78     0.97     7.36     0  04:55        0.96
  YS02001757           JUNCTION     0.90     1.10     7.36     0  04:58        1.10
  YS02001895           JUNCTION     0.23     0.36     7.11     0  02:54        0.36
  YS02001625           JUNCTION     0.59     0.76     7.36     0  04:56        0.75
  YS02163301           JUNCTION     0.66     0.84     7.36     0  04:58        0.84
  YS02163601           JUNCTION     0.78     0.95     7.35     0  04:54        0.95
  YS02164001           JUNCTION     0.72     0.90     7.36     0  04:57        0.90
  YS02001647           JUNCTION     0.58     0.74     7.35     0  04:57        0.74
  YSB1154              JUNCTION     0.23     0.36     9.42     0  02:18        0.36
  YSB6556              JUNCTION     0.13     0.25     9.42     0  02:18        0.25
  YSB1174              JUNCTION     0.19     0.31     9.42     0  02:18        0.31
  YSB1171              JUNCTION     0.38     0.52     9.42     0  02:18        0.52
  YS02006553           JUNCTION     0.66     0.81     7.09     0  02:55        0.81
  YS02006561           JUNCTION     0.13     0.20     6.86     0  02:55        0.20
  YS02006556           JUNCTION     0.63     0.78     7.09     0  02:55        0.78
  YS02006558           JUNCTION     0.68     0.82     7.09     0  02:55        0.82
  YS02001783           JUNCTION     0.22     0.35     6.49     0  02:55        0.35
  YS02001784           JUNCTION     0.25     0.38     6.45     0  02:55        0.38
  YS02001786           JUNCTION     0.21     0.32     6.35     0  02:56        0.32
  YS02001788           JUNCTION     0.15     0.24     6.22     0  02:56        0.24
  YS02001790           JUNCTION     0.19     0.29     5.94     0  02:56        0.29
  YS02001791           JUNCTION     0.12     0.19     5.66     0  02:56        0.19
  YS02001793           JUNCTION     0.08     0.13     4.96     0  03:03        0.13
  WS02004139           JUNCTION     0.57     0.71     5.62     0  03:50        0.71
  WSC                  OUTFALL      0.29     0.35     1.02     0  04:35        0.35
  3                    OUTFALL      0.07     0.20     6.20     0  04:20        0.20
  4                    OUTFALL      0.02     0.09     7.09     0  05:40        0.09
  5                    OUTFALL      0.00     0.00     5.00     0  00:00        0.00
  JK-storage           STORAGE      0.26     3.00     3.80     0  00:00        2.70
  CC-storage           STORAGE      0.15     0.32     7.32     0  05:18        0.32
  XR-storage           STORAGE      6.97     7.72     5.72     0  03:28        7.72
  
  
  *******************
  Node Inflow Summary
  *******************
  
  -------------------------------------------------------------------------------------------------
                                  Maximum  Maximum                  Lateral       Total        Flow
                                  Lateral    Total  Time of Max      Inflow      Inflow     Balance
                                   Inflow   Inflow   Occurrence      Volume      Volume       Error
  Node                 Type           LPS      LPS  days hr:min    10^6 ltr    10^6 ltr     Percent
  -------------------------------------------------------------------------------------------------
  WS02001211           JUNCTION      7.35   381.29     0  01:30       0.207        6.19       0.598
  WS02001212           JUNCTION      0.00   377.04     0  01:30           0        6.15       0.313
  WS02001213           JUNCTION      0.00   375.96     0  01:31           0        6.13       0.381
  WS02003069           JUNCTION      0.32   754.59     0  04:33     0.00902        13.3       0.215
  WS02003072           JUNCTION      0.00   754.29     0  04:33           0        13.2       0.266
  WS02003073           JUNCTION      1.82   755.98     0  04:34      0.0514        13.3       0.300
  WS02003060           JUNCTION     16.53   754.45     0  04:32       0.466        13.3       0.204
  WS02003066           JUNCTION      0.00   443.04     0  02:50           0        6.75       0.058
  WS02003059           JUNCTION      0.00   374.43     0  01:31           0        6.11       0.626
  WS02003067           JUNCTION      0.00   443.03     0  02:50           0        6.76       0.125
  WS02004401           JUNCTION      0.00   444.68     0  02:44           0        6.97       0.269
  WS02004402           JUNCTION      0.00   444.42     0  02:45           0        6.95       0.258
  WS02004403           JUNCTION      0.00   444.29     0  02:45           0        6.93       0.238
  WS02004404           JUNCTION      0.16   444.39     0  02:46     0.00457        6.92       0.183
  WS02004406           JUNCTION      0.00   444.38     0  02:46           0        6.89       0.448
  WS02004409           JUNCTION      0.00   444.35     0  02:47           0        6.85       0.199
  WS02004410           JUNCTION      0.00   443.82     0  02:47           0        6.84       0.231
  WS02004411           JUNCTION      0.00   443.45     0  02:48           0        6.82       0.241
  WS02004412           JUNCTION      0.00   443.21     0  02:49           0        6.81       0.267
  WS02004413           JUNCTION      0.00   443.08     0  02:49           0        6.79       0.402
  WS02004405           JUNCTION      0.04   444.40     0  02:46     0.00107        6.91       0.274
  WS02006109           JUNCTION      1.23   443.32     0  02:41      0.0347        7.05       0.242
  WS02006110           JUNCTION      0.00   443.32     0  02:41           0        7.03       0.233
  WS02006111           JUNCTION      0.00   455.39     0  02:42           0        7.01       0.044
  WS02006112           JUNCTION      7.75   448.00     0  02:42      0.0217        7.03       0.371
  WS02006113           JUNCTION      0.00   443.40     0  02:42           0        7.02       0.104
  WS02006115           JUNCTION      0.00   446.01     0  02:43           0           7       0.235
  WS02006116           JUNCTION      0.00   445.15     0  02:44           0        6.98       0.229
  WS02006230           JUNCTION     10.28   394.59     0  03:52        0.29        6.27       0.187
  WS02006231           JUNCTION      0.00   385.46     0  03:52           0        5.98       0.109
  WS02006232           JUNCTION      0.00   385.64     0  03:52           0           6       0.214
  WS02006234           JUNCTION      0.00   386.83     0  03:51           0           6       0.070
  WS02006235           JUNCTION      0.00   386.98     0  03:51           0        6.04       0.145
  WS02006238           JUNCTION      0.00   318.86     0  04:10           0        4.26       0.041
  WS02006240           JUNCTION      0.00   330.57     0  04:10           0        4.24       0.150
  WS02006242           JUNCTION      0.00   336.13     0  04:11           0        4.24       0.200
  WS02006243           JUNCTION      0.00   341.14     0  05:01           0        4.22      -0.147
  WS02006245           JUNCTION      0.00   345.36     0  05:01           0        4.23       0.174
  WS02006247           JUNCTION      0.00   349.72     0  05:00           0        4.23       0.105
  WS02006248           JUNCTION      0.00   353.55     0  05:00           0        4.23       0.025
  WS02006249           JUNCTION      0.00   401.03     0  06:52           0        4.54       0.163
  WS02006239           JUNCTION      0.00   324.03     0  04:10           0        4.25       0.091
  WS02006251           JUNCTION      0.08   400.89     0  05:38     0.00217        4.57       0.100
  WS02006252           JUNCTION      0.00   400.00     0  05:30           0        4.42       0.007
  WS02006253           JUNCTION      1.20    33.31     0  02:18     0.00282       0.147       1.044
  WS02006256           JUNCTION      0.00   599.89     0  04:20           0        3.77       0.071
  WS02004138           JUNCTION      0.00   380.00     0  03:50           0        6.01       0.076
  WS02004407           JUNCTION      0.00   444.36     0  02:46           0        6.86       0.089
  WS02006228           JUNCTION      0.00   442.09     0  02:41           0        7.03       0.164
  WS02006229           JUNCTION      0.00   442.08     0  02:41           0        7.04       0.157
  WS02006280           JUNCTION      0.00   173.95     0  02:20           0       0.783       0.009
  WS02006284           JUNCTION      0.10   173.94     0  02:19      0.0027       0.784       0.137
  WS02006287           JUNCTION      0.00   173.86     0  02:19           0       0.782       0.092
  WSF200               JUNCTION      0.00   443.04     0  02:50           0        6.75       0.052
  HS02004901           JUNCTION      9.62     9.62     0  02:11      0.0262      0.0263       7.157
  HS02004881           JUNCTION      3.87    32.41     0  02:18      0.0114       0.119       0.233
  HS02004876           JUNCTION      6.06    28.86     0  02:19      0.0218       0.108       0.485
  HS02004870           JUNCTION      6.78    22.94     0  02:19      0.0216      0.0866       0.122
  HS02004862           JUNCTION      5.52    16.66     0  02:19      0.0271      0.0652       0.258
  HS02004856           JUNCTION      5.02    11.19     0  02:18      0.0162      0.0395       3.779
  HS02004852           JUNCTION      0.00     6.52     0  02:19           0      0.0233       0.213
  HS02004848           JUNCTION     10.83    10.83     0  02:21      0.0512      0.0512       0.084
  HS02004842           JUNCTION      0.00     4.68     0  02:31           0      0.0409      46.528
  HS02004837           JUNCTION     17.15    21.19     0  02:17       0.217       0.245       0.333
  HS02004830           JUNCTION      0.15    21.33     0  02:18     0.00423       0.235       0.527
  HS02004824           JUNCTION     12.09    33.27     0  02:22      0.0672       0.301       0.179
  HS02004817           JUNCTION      0.60    33.86     0  02:22      0.0169       0.317       5.544
  HS02004807           JUNCTION     12.78    45.43     0  02:20      0.0397        0.34       1.257
  HS02004802           JUNCTION      0.00    45.57     0  02:21           0       0.336       1.223
  HS02004799           JUNCTION      9.80   109.40     0  02:17      0.0321       0.397       0.570
  HS02004792           JUNCTION     44.06    99.89     0  02:17       0.142       0.365       0.113
  HS02004788           JUNCTION     14.93    58.11     0  02:18      0.0917       0.225       0.175
  HS02004785           JUNCTION      0.15    43.70     0  02:17     0.00423       0.135       0.357
  HS02004777           JUNCTION      0.03    44.22     0  02:15    0.000846       0.135       3.969
  HS02004770           JUNCTION     37.34    45.63     0  02:13       0.112       0.136       2.324
  HS02004480           JUNCTION      0.00   128.93     0  02:18           0       0.462       0.154
  HS02004479           JUNCTION      0.00    19.96     0  02:19           0      0.0768       0.957
  HS02004478           JUNCTION      0.00   173.86     0  02:19           0       0.782       0.081
  YS02001745           JUNCTION     58.39    58.39     0  03:01       0.659       0.659       0.106
  YS02001748           JUNCTION      0.04   131.99     0  03:21     0.00127       0.816      -0.016
  YS02001751           JUNCTION      0.01   183.09     0  03:23     0.00031       0.846       0.252
  YS02001754           JUNCTION      0.26   170.87     0  03:28     0.00733       0.929       1.114
  YS02001762           JUNCTION      0.00   111.77     0  03:23           0       0.774       1.823
  YS02001765           JUNCTION      0.00   105.00     0  03:14           0       0.766       1.952
  YS02001767           JUNCTION      0.54   104.60     0  03:21      0.0151       0.772       2.592
  YS02001770           JUNCTION     75.57   100.84     0  03:21       0.778       0.876       1.924
  YS02001774           JUNCTION      0.00    40.69     0  02:24           0       0.198       8.143
  YS02001779           JUNCTION      0.01    35.71     0  03:28    0.000141      0.0851       6.694
  YS02001882           JUNCTION      0.00     3.50     0  02:09           0     0.00442      55.409
  YS02001884           JUNCTION      0.00    10.16     0  02:09           0      0.0178      35.352
  YS02001759           JUNCTION     74.07   180.32     0  03:20       0.727        1.47       1.098
  YS02001887           JUNCTION     98.28    98.28     0  02:43       0.876       0.885       0.789
  YS02001890           JUNCTION      0.00    97.70     0  02:45           0       0.863       0.889
  YS02001898           JUNCTION      0.00    97.29     0  02:47           0       0.852       0.237
  YS02001901           JUNCTION      0.00    97.23     0  02:49           0       0.852       0.624
  YS02001904           JUNCTION      0.00    96.83     0  02:50           0       0.852       0.582
  YS02001907           JUNCTION      0.00   175.43     0  02:56           0        1.82       1.209
  YS02001910           JUNCTION      0.00    79.72     0  03:00           0       0.974       1.023
  YS02001915           JUNCTION     52.46    79.35     0  03:01       0.566       0.979       0.440
  YS02001918           JUNCTION      0.00    27.11     0  03:03           0       0.414       0.242
  YS02001619           JUNCTION     50.96    50.96     0  02:59       0.558       0.558       0.120
  YS02001629           JUNCTION      0.00    77.11     0  03:22           0       0.543       1.028
  YS02001641           JUNCTION      0.00   115.75     0  03:17           0        1.15       1.118
  YS02001644           JUNCTION     55.45   169.32     0  03:08       0.632        1.77       0.889
  YS02001652           JUNCTION      0.00   105.52     0  03:49           0       0.763       1.214
  YS02001655           JUNCTION      0.15   161.43     0  03:25     0.00434       0.742       0.463
  YS02001920           JUNCTION      2.87    27.13     0  03:02      0.0809       0.416       0.459
  YS02001923           JUNCTION      0.04    24.26     0  03:02     0.00106       0.335       0.080
  YS02001926           JUNCTION      0.05    24.28     0  03:01     0.00147       0.336       0.578
  YS02001929           JUNCTION     24.24    24.24     0  03:01       0.335       0.335       0.077
  YS02001658           JUNCTION      0.00    98.13     0  03:46           0       0.735       0.065
  YS02001661           JUNCTION      0.00    69.41     0  02:46           0       0.638       0.115
  YS02001664           JUNCTION     69.41    69.41     0  02:46       0.638       0.638       0.025
  YS02001622           JUNCTION      0.00    62.79     0  03:20           0       0.557       0.499
  YS02001633           JUNCTION     56.37   115.33     0  03:05       0.651        1.18       1.590
  YS02001649           JUNCTION      0.00   280.61     0  03:23           0        2.48       0.962
  YS02001757           JUNCTION      0.00   473.89     0  03:20           0        4.63       1.519
  YS02001895           JUNCTION      0.00    97.40     0  02:48           0       0.856       0.412
  YS02001625           JUNCTION      0.00    66.78     0  03:20           0       0.556       2.854
  YS02163301           JUNCTION      0.00    65.78     0  03:21           0       0.544       2.323
  YS02163601           JUNCTION      0.11   123.45     0  03:23      0.0031        1.16       1.704
  YS02164001           JUNCTION      0.00   117.02     0  03:17           0        1.15       1.039
  YS02001647           JUNCTION      0.00   170.83     0  03:14           0        1.74       0.710
  YSB1154              JUNCTION     10.78    10.78     0  02:16      0.0389      0.0403       3.716
  YSB6556              JUNCTION      0.00    10.71     0  02:18           0      0.0413       3.105
  YSB1174              JUNCTION     11.00    11.00     0  02:10      0.0284      0.0294       4.566
  YSB1171              JUNCTION      0.00    19.90     0  02:18           0      0.0763       9.032
  YS02006553           JUNCTION      0.00   175.48     0  02:58           0         1.8       0.785
  YS02006561           JUNCTION      0.00   257.60     0  02:55           0        2.55       0.024
  YS02006556           JUNCTION      0.00   175.65     0  03:02           0        1.81       0.565
  YS02006558           JUNCTION     82.96   257.62     0  02:55       0.798        2.58       0.172
  YS02001783           JUNCTION      0.00   257.60     0  02:55           0        2.55       0.055
  YS02001784           JUNCTION      1.06   258.66     0  02:55      0.0299        2.58       0.091
  YS02001786           JUNCTION      0.06   258.71     0  02:55     0.00159        2.58       0.088
  YS02001788           JUNCTION      0.07   258.77     0  02:56       0.002        2.58       0.051
  YS02001790           JUNCTION      0.15   258.92     0  02:56     0.00437        2.58       0.064
  YS02001791           JUNCTION      0.00   258.92     0  02:56           0        2.58       0.031
  YS02001793           JUNCTION      0.00   260.10     0  03:03           0        2.58       0.013
  WS02004139           JUNCTION      0.32   379.53     0  01:30     0.00905        6.02       0.629
  WSC                  OUTFALL       0.00   755.72     0  04:35           0        13.2       0.000
  3                    OUTFALL       0.00   496.04     0  04:20           0        1.96       0.000
  4                    OUTFALL       0.00    89.94     0  05:40           0       0.295       0.000
  5                    OUTFALL       0.00     0.00     0  00:00           0           0       0.000 ltr
  JK-storage           STORAGE       0.00   260.41     0  03:03           0        2.73     -27.569
  CC-storage           STORAGE       0.00   421.79     0  03:04           0        4.33      -2.082
  XR-storage           STORAGE     295.07   295.07     0  02:53        6.74        7.34      -0.003
  
  
  **********************
  Node Surcharge Summary
  **********************
  
  Surcharging occurs when water rises above the top of the highest conduit.
  ---------------------------------------------------------------------
                                               Max. Height   Min. Depth
                                   Hours       Above Crown    Below Rim
  Node                 Type      Surcharged         Meters       Meters
  ---------------------------------------------------------------------
  WS02006109           JUNCTION        1.70          0.047        1.773
  WS02006232           JUNCTION        1.28          0.040        1.440
  WS02006235           JUNCTION        0.59          0.018        1.272
  WS02006238           JUNCTION        1.05          0.037        1.393
  WS02006242           JUNCTION        0.82          0.024        0.796
  WS02006252           JUNCTION        1.76          0.185        0.915
  WS02006228           JUNCTION        1.55          0.052        2.148
  YS02001757           JUNCTION        3.06          0.103        1.107
  
  
  *********************
  Node Flooding Summary
  *********************
  
  Flooding refers to all water that overflows a node, whether it ponds or not.
  --------------------------------------------------------------------------
                                                             Total   Maximum
                                 Maximum   Time of Max       Flood    Ponded
                        Hours       Rate    Occurrence      Volume     Depth
  Node                 Flooded       LPS   days hr:min    10^6 ltr    Meters
  --------------------------------------------------------------------------
  XR-storage              1.52    225.95      0  07:20       0.479     0.000
  
  
  **********************
  Storage Volume Summary
  **********************
  
  --------------------------------------------------------------------------------------------------
                         Average     Avg  Evap Exfil       Maximum     Max    Time of Max    Maximum
                          Volume    Pcnt  Pcnt  Pcnt        Volume    Pcnt     Occurrence    Outflow
  Storage Unit           1000 m3    Full  Loss  Loss       1000 m3    Full    days hr:min        LPS
  --------------------------------------------------------------------------------------------------
  JK-storage               0.013       5     0     0         0.151      52       0  00:00     599.89
  CC-storage               0.422       3     0     0         0.899       6       0  05:18     400.00
  XR-storage               0.836      90     0     0         0.926     100       0  03:28     380.00
  
  
  ***********************
  Outfall Loading Summary
  ***********************
  
  -----------------------------------------------------------
                         Flow       Avg       Max       Total
                         Freq      Flow      Flow      Volume
  Outfall Node           Pcnt       LPS       LPS    10^6 ltr
  -----------------------------------------------------------
  WSC                   99.99    535.86    755.72      13.213
  3                     75.63    133.68    496.04       1.964
  4                     24.93     46.97     89.94       0.295
  5                      0.00      0.00      0.00       0.000
  -----------------------------------------------------------
  System                50.14    716.51   1051.11      15.472
  
  
  ********************
  Link Flow Summary
  ********************
  
  -----------------------------------------------------------------------------
                                 Maximum  Time of Max   Maximum    Max/    Max/
                                  |Flow|   Occurrence   |Veloc|    Full    Full
  Link                 Type          LPS  days hr:min     m/sec    Flow   Depth
  -----------------------------------------------------------------------------
  WS02003066WSF200     CONDUIT    443.04     0  02:50      2.64    0.07    0.21
  WS02006287WS02006284 CONDUIT    173.85     0  02:19      1.53    0.08    0.20
  WS02006284WS02006280 CONDUIT    173.95     0  02:20      1.77    0.07    0.18
  WS02006280WS02006229 CONDUIT    173.95     0  02:20      2.84    0.04    0.13
  WS02006229WS02006228 CONDUIT    442.09     0  02:41      0.88    1.46    1.00
  WS02006256WS02006235 CONDUIT    166.25     0  00:01      2.58    1.76    1.00
  WS02006253WS02006251 CONDUIT     35.18     0  07:03      0.46    0.11    0.89
  WS02006252WS02006251 CONDUIT    400.11     0  05:30      3.18    1.47    1.00
  WS02006251WS02006249 CONDUIT    401.03     0  06:52      1.16    1.16    0.86
  WS02006249WS02006248 CONDUIT    353.55     0  05:00      1.17    1.94    0.82
  WS02006248WS02006247 CONDUIT    349.72     0  05:00      1.15    0.76    0.86
  WS02006247WS02006245 CONDUIT    345.36     0  05:01      1.13    2.74    0.89
  WS02006245WS02006243 CONDUIT    341.14     0  05:01      1.18    1.01    0.90
  WS02006243WS02006242 CONDUIT    336.13     0  04:11      1.06    0.72    0.96
  WS02006242WS02006240 CONDUIT    330.57     0  04:10      0.99    1.31    0.98
  WS02006240WS02006239 CONDUIT    324.03     0  04:10      1.05    1.02    0.99
  WS02006239WS02006238 CONDUIT    318.86     0  04:10      0.92    1.02    1.00
  WS02006238WS02006235 CONDUIT    317.88     0  06:50      1.25    0.71    1.00
  WS02006235WS02006234 CONDUIT    386.83     0  03:51      1.06    4.08    0.98
  WS02006234WS02006232 CONDUIT    385.64     0  03:52      1.13    0.78    0.99
  WS02006232WS02006231 CONDUIT    385.46     0  03:52      1.05    0.81    0.91
  WS02006231WS02006230 CONDUIT    384.31     0  03:52      1.36    5.83    0.77
  WS02006230WS02006229 CONDUIT    394.29     0  03:53      1.02    8.77    1.00
  WS02006228WS02006109 CONDUIT    442.09     0  02:41      0.88    1.93    1.00
  WS02006116WS02004401 CONDUIT    444.68     0  02:44      0.73    0.61    0.77
  WS02006115WS02006116 CONDUIT    445.15     0  02:44      0.87    0.57    0.68
  WS02006113WS02006111 CONDUIT    455.39     0  02:42      2.29    0.55    0.42
  WS02006112WS02006115 CONDUIT    446.01     0  02:43      0.67    0.26    0.81
  WS02006111WS02006112 CONDUIT    444.65     0  02:42      1.32    0.21    0.66
  WS02006110WS02006113 CONDUIT    443.40     0  02:42      1.09    0.40    0.75
  WS02006109WS02006110 CONDUIT    443.32     0  02:41      0.89    0.85    0.96
  WS02004411WS02004412 CONDUIT    443.21     0  02:49      0.84    0.63    0.64
  WS02004401WS02004402 CONDUIT    444.42     0  02:45      0.77    0.53    0.79
  WS02004413WS02003067 CONDUIT    443.03     0  02:50      1.00    0.19    0.55
  WS02004412WS02004413 CONDUIT    443.08     0  02:49      0.73    0.30    0.72
  WS02004410WS02004411 CONDUIT    443.45     0  02:48      0.86    0.61    0.62
  WS02004409WS02004410 CONDUIT    443.82     0  02:47      0.89    0.57    0.61
  WS02004407WS02004409 CONDUIT    444.35     0  02:47      1.37    0.16    0.43
  WS02004406WS02004407 CONDUIT    444.36     0  02:46      0.93    0.20    0.59
  WS02004405WS02004406 CONDUIT    444.38     0  02:46      0.66    0.88    0.90
  WS02004404WS02004405 CONDUIT    444.37     0  02:46      0.84    4.35    0.90
  WS02004403WS02004404 CONDUIT    444.23     0  02:46      0.74    0.32    0.86
  WS02004402WS02004403 CONDUIT    444.29     0  02:45      0.75    0.64    0.82
  WS02004139WS02001211 CONDUIT    373.94     0  01:30      0.69    0.47    0.57
  WS02004138WS02004139 CONDUIT    379.21     0  01:30      2.94    0.08    0.43
  WS02003067WS02003066 CONDUIT    443.04     0  02:50      1.08    0.14    0.39
  WS02001213WS02003059 CONDUIT    374.43     0  01:31      0.67    0.62    0.73
  WS02001212WS02001213 CONDUIT    375.96     0  01:31      1.31    0.58    0.43
  WS02001211WS02001212 CONDUIT    377.04     0  01:30      0.77    0.29    0.62
  WS02003072WS02003073 CONDUIT    754.15     0  04:34      1.60    1.63    0.43
  WS02003069WS02003072 CONDUIT    754.29     0  04:33      1.51    0.36    0.45
  WS02003060WS02003069 CONDUIT    754.27     0  04:33      1.77    0.30    0.40
  WS02003059WS02003060 CONDUIT    371.88     0  01:32      0.93    0.24    0.61
  HS02004901HS02004770 CONDUIT      8.64     0  02:15      0.04    0.03    0.30
  HS02004876HS02004881 CONDUIT     28.91     0  02:19      0.49    0.31    0.08
  HS02004870HS02004876 CONDUIT     22.92     0  02:19      0.35    0.02    0.09
  HS02004842HS02004848 CONDUIT      4.68     0  02:31      0.03    0.00    0.27
  HS02004837HS02004842 CONDUIT      4.84     0  02:31      0.41    0.00    0.28
  HS02004830HS02004837 CONDUIT     21.18     0  02:18      0.42    0.02    0.07
  HS02004824HS02004830 CONDUIT     21.32     0  02:19      0.46    0.03    0.07
  HS02004817HS02004824 CONDUIT     33.26     0  02:22      0.17    0.01    0.39
  HS02004770HS02004777 CONDUIT     44.19     0  02:15      0.20    0.08    0.31
  HS02004799HS02004480 CONDUIT    109.19     0  02:17      0.54    0.14    0.29
  HS02004792HS02004799 CONDUIT     99.82     0  02:17      0.63    0.06    0.23
  HS02004788HS02004792 CONDUIT     58.06     0  02:18      0.78    0.04    0.11
  HS02004785HS02004788 CONDUIT     43.56     0  02:18      0.47    0.33    0.13
  HS02004777HS02004785 CONDUIT     43.55     0  02:17      0.25    0.05    0.25
  HS02004480HS02004478 CONDUIT    128.90     0  02:18      0.90    0.54    0.21
  HS02004479HS02004480 CONDUIT     20.12     0  02:20      0.16    0.02    0.28
  HS02004862HS02004870 CONDUIT     16.62     0  02:20      0.43    0.02    0.05
  HS02004848HS02004852 CONDUIT      6.52     0  02:19      0.28    0.01    0.03
  HS02004856HS02004862 CONDUIT     11.16     0  02:19      0.32    0.01    0.05
  HS02004852HS02004856 CONDUIT      6.48     0  02:21      0.11    0.01    0.09
  HS02004802HS02004478 CONDUIT     45.81     0  02:22      0.28    0.04    0.24
  HS02004478WS02006287 CONDUIT    173.86     0  02:19      1.22    0.05    0.16
  HS02004817HS02004807 CONDUIT     34.24     0  02:24      0.10    0.02    0.49
  HS02004807HS02004802 CONDUIT     45.57     0  02:21      0.23    0.09    0.28
  YS02001759YS02001757 CONDUIT    172.57     0  03:16      0.22    0.12    1.00
  YS02001762YS02001759 CONDUIT    119.63     0  03:20      0.17    0.14    0.97
  YS02001765YS02001762 CONDUIT    111.77     0  03:23      0.22    0.10    0.93
  YS02001770YS02001767 CONDUIT    104.06     0  03:21      0.34    0.41    0.86
  YS02001774YS02001770 CONDUIT     40.69     0  02:24      0.14    0.03    0.88
  YS02001779YS02001774 CONDUIT     35.71     0  03:28      0.07    0.02    0.80
  YS02001649YS02001757 CONDUIT    306.50     0  03:24      0.39    0.19    0.98
  YS02001767YS02001765 CONDUIT    105.00     0  03:14      0.26    0.13    0.89
  YS02006561YS02001783 CONDUIT    257.60     0  02:55      1.70    0.13    0.34
  YS02001783YS02001784 CONDUIT    257.60     0  02:55      1.16    0.36    0.46
  YS02001784YS02001785 CONDUIT    258.65     0  02:55      1.22    0.60    0.44
  YS02001788YS02001790 CONDUIT    258.77     0  02:56      1.78    0.19    0.33
  YS02001790YS02001791 CONDUIT    258.92     0  02:56      2.05    0.28    0.30
  YS02001791YS02001793 CONDUIT    260.10     0  03:03      4.14    0.11    0.20
  YS02001910YS02001907 CONDUIT     79.86     0  03:01      0.49    0.05    0.69
  YS02001786YS02001788 CONDUIT    258.70     0  02:56      1.65    0.50    0.35
  YS02001915YS02001910 CONDUIT     79.72     0  03:00      0.44    0.04    0.48
  YS02001918YS02001915 CONDUIT     27.10     0  03:03      0.44    0.01    0.23
  YS02001923YS02001920 CONDUIT     24.26     0  03:02      0.40    0.01    0.13
  YS02001926YS02001923 CONDUIT     24.23     0  03:02      0.45    0.03    0.12
  YS02001929YS02001926 CONDUIT     24.23     0  03:01      0.47    0.01    0.12
  YS02001920YS02001918 CONDUIT     27.11     0  03:03      0.42    0.03    0.14
  YS02001629YS02163301 CONDUIT     65.78     0  03:21      0.11    0.08    0.83
  YS02001619YS02001622 CONDUIT     62.79     0  03:20      0.63    0.09    0.44
  YS02001622YS02001625 CONDUIT     66.78     0  03:20      0.23    0.04    0.60
  YS02001625YS02001629 CONDUIT     77.11     0  03:22      0.23    0.04    0.59
  YS02163301YS02001633 CONDUIT     63.57     0  03:19      0.10    0.06    0.87
  YS02163601YS02164001 CONDUIT    117.02     0  03:17      0.16    0.10    0.92
  YS02164001YS02001641 CONDUIT    115.75     0  03:17      0.16    0.16    0.91
  YS02001641YS02001644 CONDUIT    116.49     0  03:08      0.16    0.38    0.93
  YS02001647YS02001649 CONDUIT    174.84     0  03:17      0.25    0.09    0.85
  YS02006553YS02006556 CONDUIT    175.65     0  03:02      0.27    0.15    0.78
  YS02006556YS02006558 CONDUIT    175.82     0  03:02      0.26    0.14    0.80
  YSB6556YSB1171       CONDUIT     10.83     0  02:20      0.05    0.01    0.55
  YS02001907YS02006553 CONDUIT    175.48     0  02:58      0.22    0.21    0.88
  YS02006558YS02006561 CONDUIT    257.60     0  02:55      2.18    0.57    0.43
  YS02001633YS02163601 CONDUIT    123.34     0  03:23      0.17    0.13    0.91
  YS02001644YS02001647 CONDUIT    170.83     0  03:14      0.25    0.10    0.83
  YS02001745YS02001748 CONDUIT     58.39     0  03:01      1.34    0.02    0.16
  YS02001748YS02001751 CONDUIT    183.08     0  03:23      1.04    0.09    0.37
  YS02001751YS02001754 CONDUIT     94.91     0  03:21      0.94    0.05    0.62
  YS02001754YS02001757 CONDUIT    181.69     0  03:30      0.33    0.07    0.90
  YS02001882YS02001884 CONDUIT      3.50     0  02:09      0.06    0.00    0.42
  YS02001884YS02001887 CONDUIT     10.16     0  02:09      0.06    0.01    0.51
  YS02001890YS02001895 CONDUIT     97.40     0  02:48      0.26    0.05    0.48
  YS02001895YS02001898 CONDUIT     97.29     0  02:47      0.47    0.17    0.35
  YS02001898YS02001901 CONDUIT     97.23     0  02:49      0.31    0.06    0.42
  YS02001901YS02001904 CONDUIT     96.83     0  02:50      0.26    0.15    0.48
  YS02001904YS02001907 CONDUIT     96.96     0  02:52      0.18    0.03    0.64
  YS02001887YS02001890 CONDUIT     97.70     0  02:45      0.21    0.17    0.57
  YS02001652YS02001649 CONDUIT    148.81     0  03:21      0.32    0.07    0.87
  YS02001655YS02001652 CONDUIT    102.66     0  03:18      1.02    0.05    0.64
  YS02001658YS02001655 CONDUIT    161.27     0  03:25      1.20    0.07    0.35
  YS02001661YS02001658 CONDUIT     69.40     0  02:46      1.37    0.03    0.16
  YS02001664YS02001661 CONDUIT     69.41     0  02:46      1.01    0.02    0.14
  YSB1154YSB6556       CONDUIT     10.71     0  02:18      0.19    0.02    0.44
  YSB1174YSB1171       CONDUIT     10.02     0  02:12      0.05    0.02    0.56
  YSB1171HS02004479    CONDUIT     19.96     0  02:19      0.54    0.01    0.43
  HS02004881HS02006253 CONDUIT     32.41     0  02:19      1.55    0.01    0.22
  YS02001793JiankangQianchi CONDUIT    260.41     0  03:03     12.51    0.02    0.55
  YS02001757CaochengTiaoxuchi CONDUIT    421.79     0  03:04      0.95    0.19    0.66
  WSF200WS02003060     CONDUIT    443.02     0  02:50      1.67    0.10    0.29
  1                    CONDUIT    755.72     0  04:35      3.08    0.26    0.35
  2                    CONDUIT     89.94     0  05:40      4.70    0.22    0.32
  3                    CONDUIT    496.04     0  04:20     10.28    0.79    0.68
  4                    CONDUIT      0.00     0  00:00      0.00    0.00    0.00
  CC-Pump-1            PUMP       200.00     0  04:10              1.00
  CC-Pump-2            PUMP       200.00     0  02:27              1.00
  JK-Pump-1            PUMP       300.00     0  02:40              1.00
  JK-Pump-2            PUMP       300.00     0  00:00              1.00
  XR-Pump-1            PUMP        95.00     0  00:00              1.00
  XR-Pump-2            PUMP        95.00     0  00:00              1.00
  XR-Pump-3            PUMP        95.00     0  00:20              1.00
  XR-Pump-4            PUMP        95.00     0  01:10              1.00
  
  
  ***************************
  Flow Classification Summary
  ***************************
  
  -------------------------------------------------------------------------------------
                      Adjusted    ---------- Fraction of Time in Flow Class ---------- 
                       /Actual         Up    Down  Sub   Sup   Up    Down  Norm  Inlet 
  Conduit               Length    Dry  Dry   Dry   Crit  Crit  Crit  Crit  Ltd   Ctrl  
  -------------------------------------------------------------------------------------
  WS02003066WSF200        1.00   0.06  0.01  0.00  0.00  0.93  0.00  0.00  0.76  0.00
  WS02006287WS02006284    1.00   0.04  0.02  0.00  0.69  0.25  0.00  0.00  0.78  0.00
  WS02006284WS02006280    1.00   0.05  0.00  0.00  0.00  0.00  0.00  0.95  0.00  0.00
  WS02006280WS02006229    1.00   0.05  0.00  0.00  0.00  0.00  0.00  0.95  0.00  0.00
  WS02006229WS02006228    1.00   0.00  0.00  0.00  0.99  0.00  0.00  0.01  0.00  0.00
  WS02006256WS02006235    1.00   0.00  0.00  0.00  1.00  0.00  0.00  0.00  0.00  0.00
  WS02006253WS02006251    1.00   0.03  0.01  0.00  0.95  0.00  0.00  0.00  0.00  0.00
  WS02006252WS02006251    1.00   0.10  0.00  0.00  0.00  0.00  0.90  0.00  0.00  0.00
  WS02006251WS02006249    1.00   0.00  0.00  0.00  1.00  0.00  0.00  0.00  0.31  0.00
  WS02006249WS02006248    1.00   0.00  0.02  0.00  0.88  0.00  0.09  0.00  0.00  0.00
  WS02006248WS02006247    1.00   0.03  0.00  0.00  0.97  0.00  0.00  0.00  0.20  0.00
  WS02006247WS02006245    1.00   0.02  0.00  0.00  0.97  0.00  0.00  0.01  0.00  0.00
  WS02006245WS02006243    1.00   0.01  0.00  0.00  0.93  0.00  0.00  0.05  0.01  0.00
  WS02006243WS02006242    1.00   0.01  0.00  0.00  0.99  0.00  0.00  0.00  0.27  0.00
  WS02006242WS02006240    1.00   0.00  0.00  0.00  1.00  0.00  0.00  0.00  0.00  0.00
  WS02006240WS02006239    1.00   0.00  0.00  0.00  0.95  0.00  0.00  0.05  0.01  0.00
  WS02006239WS02006238    1.00   0.00  0.00  0.00  1.00  0.00  0.00  0.00  0.02  0.00
  WS02006238WS02006235    1.00   0.00  0.00  0.00  1.00  0.00  0.00  0.00  0.00  0.00
  WS02006235WS02006234    1.00   0.00  0.00  0.00  0.95  0.00  0.05  0.00  0.00  0.00
  WS02006234WS02006232    1.00   0.00  0.00  0.00  1.00  0.00  0.00  0.00  0.10  0.00
  WS02006232WS02006231    1.00   0.00  0.00  0.00  0.99  0.00  0.00  0.00  0.00  0.00
  WS02006231WS02006230    1.00   0.00  0.00  0.00  0.61  0.00  0.39  0.00  0.00  0.00
  WS02006230WS02006229    1.00   0.00  0.00  0.00  0.98  0.00  0.00  0.02  0.01  0.00
  WS02006228WS02006109    1.00   0.00  0.00  0.00  1.00  0.00  0.00  0.00  0.00  0.00
  WS02006116WS02004401    1.00   0.03  0.00  0.00  0.97  0.00  0.00  0.00  0.00  0.00
  WS02006115WS02006116    1.00   0.03  0.00  0.00  0.97  0.00  0.00  0.01  0.00  0.00
  WS02006113WS02006111    1.00   0.02  0.00  0.00  0.00  0.98  0.00  0.00  0.12  0.00
  WS02006112WS02006115    1.00   0.02  0.00  0.00  0.97  0.00  0.00  0.00  0.00  0.00
  WS02006111WS02006112    1.00   0.02  0.00  0.00  0.97  0.00  0.00  0.00  0.98  0.00
  WS02006110WS02006113    1.00   0.01  0.01  0.00  0.98  0.00  0.00  0.00  0.00  0.00
  WS02006109WS02006110    1.00   0.00  0.01  0.00  0.98  0.00  0.01  0.00  0.00  0.00
  WS02004411WS02004412    1.00   0.04  0.00  0.00  0.96  0.00  0.00  0.00  0.00  0.00
  WS02004401WS02004402    1.00   0.03  0.00  0.00  0.97  0.00  0.00  0.00  0.00  0.00
  WS02004413WS02003067    1.00   0.04  0.02  0.00  0.00  0.00  0.94  0.00  0.00  0.00
  WS02004412WS02004413    1.00   0.04  0.00  0.00  0.96  0.00  0.00  0.00  0.03  0.00
  WS02004410WS02004411    1.00   0.04  0.00  0.00  0.96  0.00  0.00  0.00  0.04  0.00
  WS02004409WS02004410    1.00   0.04  0.00  0.00  0.96  0.00  0.00  0.00  0.04  0.00
  WS02004407WS02004409    1.00   0.04  0.00  0.00  0.96  0.00  0.00  0.00  0.89  0.00
  WS02004406WS02004407    1.00   0.00  0.04  0.00  0.96  0.00  0.00  0.00  0.00  0.00
  WS02004405WS02004406    1.00   0.00  0.00  0.00  1.00  0.00  0.00  0.00  0.00  0.00
  WS02004404WS02004405    1.00   0.00  0.00  0.00  1.00  0.00  0.00  0.00  0.00  0.00
  WS02004403WS02004404    1.00   0.00  0.03  0.00  0.97  0.00  0.00  0.00  0.01  0.00
  WS02004402WS02004403    1.00   0.03  0.00  0.00  0.97  0.00  0.00  0.00  0.00  0.00
  WS02004139WS02001211    1.00   0.00  0.00  0.00  0.99  0.00  0.01  0.00  0.00  0.00
  WS02004138WS02004139    1.00   0.00  0.00  0.00  0.99  0.01  0.00  0.00  1.00  0.00
  WS02003067WS02003066    1.00   0.06  0.00  0.00  0.93  0.00  0.00  0.00  0.00  0.00
  WS02001213WS02003059    1.00   0.00  0.00  0.00  0.99  0.00  0.00  0.00  0.00  0.00
  WS02001212WS02001213    1.00   0.00  0.00  0.00  0.82  0.00  0.17  0.00  0.00  0.00
  WS02001211WS02001212    1.00   0.00  0.00  0.00  1.00  0.00  0.00  0.00  0.00  0.00
  WS02003072WS02003073    1.00   0.00  0.00  0.00  0.00  0.00  0.00  1.00  0.00  0.00
  WS02003069WS02003072    1.00   0.00  0.00  0.00  0.99  0.01  0.00  0.00  0.30  0.00
  WS02003060WS02003069    1.00   0.00  0.00  0.00  0.99  0.01  0.00  0.00  0.14  0.00
  WS02003059WS02003060    1.00   0.00  0.00  0.00  1.00  0.00  0.00  0.00  0.01  0.00
  HS02004901HS02004770    1.00   0.05  0.00  0.00  0.95  0.00  0.00  0.00  0.03  0.00
  HS02004876HS02004881    1.00   0.03  0.00  0.00  0.97  0.00  0.00  0.00  0.00  0.00
  HS02004870HS02004876    1.00   0.01  0.00  0.00  0.99  0.00  0.00  0.00  0.95  0.00
  HS02004842HS02004848    1.00   0.00  0.05  0.00  0.95  0.00  0.00  0.00  0.69  0.00
  HS02004837HS02004842    1.00   0.00  0.00  0.00  0.99  0.01  0.00  0.00  0.11  0.00
  HS02004830HS02004837    1.00   0.00  0.00  0.00  1.00  0.00  0.00  0.00  0.99  0.00
  HS02004824HS02004830    1.00   0.00  0.00  0.00  1.00  0.00  0.00  0.00  0.00  0.00
  HS02004817HS02004824    1.00   0.00  0.00  0.00  1.00  0.00  0.00  0.00  1.00  0.00
  HS02004770HS02004777    1.00   0.00  0.05  0.00  0.95  0.00  0.00  0.00  0.07  0.00
  HS02004799HS02004480    1.00   0.00  0.03  0.00  0.94  0.00  0.03  0.00  0.00  0.00
  HS02004792HS02004799    1.00   0.00  0.00  0.00  0.98  0.02  0.00  0.00  0.98  0.00
  HS02004788HS02004792    1.00   0.00  0.00  0.00  0.99  0.01  0.00  0.00  0.98  0.00
  HS02004785HS02004788    1.00   0.00  0.00  0.00  1.00  0.00  0.00  0.00  0.00  0.00
  HS02004777HS02004785    1.00   0.00  0.00  0.00  1.00  0.00  0.00  0.00  0.21  0.00
  HS02004480HS02004478    1.00   0.05  0.00  0.00  0.73  0.00  0.00  0.22  0.00  0.00
  HS02004479HS02004480    1.00   0.03  0.00  0.00  0.97  0.00  0.00  0.00  0.16  0.00
  HS02004862HS02004870    1.00   0.00  0.00  0.00  1.00  0.00  0.00  0.00  0.05  0.00
  HS02004848HS02004852    1.00   0.05  0.00  0.00  0.95  0.00  0.00  0.00  0.70  0.00
  HS02004856HS02004862    1.00   0.00  0.07  0.00  0.93  0.00  0.00  0.00  0.74  0.00
  HS02004852HS02004856    1.00   0.05  0.01  0.00  0.94  0.00  0.00  0.00  0.82  0.00
  HS02004802HS02004478    1.00   0.05  0.01  0.00  0.94  0.00  0.00  0.00  0.00  0.00
  HS02004478WS02006287    1.00   0.06  0.00  0.00  0.89  0.05  0.00  0.00  0.81  0.00
  HS02004817HS02004807    1.00   0.00  0.05  0.00  0.95  0.00  0.00  0.00  0.00  0.00
  HS02004807HS02004802    1.00   0.05  0.00  0.00  0.95  0.00  0.00  0.00  0.01  0.00
  YS02001759YS02001757    1.00   0.00  0.00  0.00  1.00  0.00  0.00  0.00  0.17  0.00
  YS02001762YS02001759    1.00   0.00  0.00  0.00  1.00  0.00  0.00  0.00  0.05  0.00
  YS02001765YS02001762    1.00   0.00  0.00  0.00  1.00  0.00  0.00  0.00  0.23  0.00
  YS02001770YS02001767    1.00   0.00  0.00  0.00  1.00  0.00  0.00  0.00  0.00  0.00
  YS02001774YS02001770    1.00   0.00  0.06  0.00  0.94  0.00  0.00  0.00  0.07  0.00
  YS02001779YS02001774    1.00   0.00  0.00  0.00  1.00  0.00  0.00  0.00  0.27  0.00
  YS02001649YS02001757    1.00   0.00  0.00  0.00  1.00  0.00  0.00  0.00  0.19  0.00
  YS02001767YS02001765    1.00   0.00  0.00  0.00  1.00  0.00  0.00  0.00  0.01  0.00
  YS02006561YS02001783    1.00   0.08  0.00  0.00  0.00  0.92  0.00  0.00  0.73  0.00
  YS02001783YS02001784    1.00   0.00  0.08  0.00  0.92  0.00  0.00  0.00  0.00  0.00
  YS02001784YS02001785    1.00   0.00  0.00  0.00  1.00  0.00  0.00  0.00  0.26  0.00
  YS02001788YS02001790    1.00   0.00  0.00  0.00  0.08  0.92  0.00  0.00  0.82  0.00
  YS02001790YS02001791    1.00   0.00  0.00  0.00  0.02  0.98  0.00  0.00  0.48  0.00
  YS02001791YS02001793    1.00   0.00  0.00  0.00  0.00  1.00  0.00  0.00  0.00  0.00
  YS02001910YS02001907    1.00   0.00  0.00  0.00  0.97  0.00  0.00  0.03  0.13  0.00
  YS02001786YS02001788    1.00   0.00  0.00  0.00  0.08  0.92  0.00  0.00  0.00  0.00
  YS02001915YS02001910    1.00   0.00  0.00  0.00  0.99  0.01  0.00  0.00  0.24  0.00
  YS02001918YS02001915    1.00   0.00  0.01  0.00  0.98  0.02  0.00  0.00  0.81  0.00
  YS02001923YS02001920    1.00   0.00  0.00  0.00  1.00  0.00  0.00  0.00  1.00  0.00
  YS02001926YS02001923    1.00   0.00  0.04  0.00  0.00  0.00  0.96  0.00  0.00  0.00
  YS02001929YS02001926    1.00   0.00  0.05  0.00  0.95  0.00  0.00  0.00  0.86  0.00
  YS02001920YS02001918    1.00   0.00  0.01  0.00  0.99  0.00  0.00  0.00  0.00  0.00
  YS02001629YS02163301    1.00   0.07  0.00  0.00  0.93  0.00  0.00  0.00  0.00  0.00
  YS02001619YS02001622    1.00   0.05  0.00  0.00  0.95  0.00  0.00  0.00  0.00  0.00
  YS02001622YS02001625    1.00   0.05  0.00  0.00  0.95  0.00  0.00  0.00  0.13  0.00
  YS02001625YS02001629    1.00   0.05  0.03  0.00  0.90  0.00  0.02  0.00  0.00  0.00
  YS02163301YS02001633    1.00   0.00  0.07  0.00  0.93  0.00  0.00  0.00  0.00  0.00
  YS02163601YS02164001    1.00   0.00  0.04  0.00  0.96  0.00  0.00  0.00  0.00  0.00
  YS02164001YS02001641    1.00   0.01  0.03  0.00  0.96  0.00  0.00  0.00  0.07  0.00
  YS02001641YS02001644    1.00   0.00  0.01  0.00  0.99  0.00  0.00  0.00  0.00  0.00
  YS02001647YS02001649    1.00   0.00  0.07  0.00  0.93  0.00  0.00  0.00  0.01  0.00
  YS02006553YS02006556    1.00   0.02  0.00  0.00  0.98  0.00  0.00  0.00  0.03  0.00
  YS02006556YS02006558    1.00   0.00  0.00  0.00  1.00  0.00  0.00  0.00  0.00  0.00
  YSB6556YSB1171          1.00   0.03  0.02  0.00  0.95  0.00  0.00  0.00  0.00  0.00
  YS02001907YS02006553    1.00   0.00  0.02  0.00  0.97  0.00  0.00  0.00  0.00  0.00
  YS02006558YS02006561    1.00   0.08  0.00  0.00  0.00  0.92  0.00  0.00  0.72  0.00
  YS02001633YS02163601    1.00   0.00  0.01  0.00  0.99  0.00  0.00  0.00  0.20  0.00
  YS02001644YS02001647    1.00   0.00  0.07  0.00  0.93  0.00  0.00  0.00  0.00  0.00
  YS02001745YS02001748    1.00   0.00  0.00  0.00  0.35  0.16  0.00  0.49  0.39  0.00
  YS02001748YS02001751    1.00   0.00  0.00  0.00  0.97  0.03  0.00  0.00  0.39  0.00
  YS02001751YS02001754    1.00   0.00  0.00  0.00  0.92  0.00  0.00  0.08  0.02  0.00
  YS02001754YS02001757    1.00   0.00  0.00  0.00  0.99  0.01  0.00  0.00  0.27  0.00
  YS02001882YS02001884    1.00   0.06  0.00  0.00  0.93  0.00  0.00  0.00  0.00  0.00
  YS02001884YS02001887    1.00   0.03  0.01  0.00  0.96  0.00  0.00  0.00  0.00  0.00
  YS02001890YS02001895    1.00   0.00  0.07  0.00  0.93  0.00  0.00  0.00  0.00  0.00
  YS02001895YS02001898    1.00   0.07  0.00  0.00  0.92  0.00  0.01  0.00  0.00  0.00
  YS02001898YS02001901    1.00   0.07  0.00  0.00  0.93  0.00  0.00  0.00  0.02  0.00
  YS02001901YS02001904    1.00   0.07  0.00  0.00  0.93  0.00  0.00  0.00  0.00  0.00
  YS02001904YS02001907    1.00   0.00  0.06  0.00  0.93  0.00  0.00  0.00  0.00  0.00
  YS02001887YS02001890    1.00   0.00  0.00  0.00  0.97  0.00  0.03  0.00  0.00  0.00
  YS02001652YS02001649    1.00   0.00  0.00  0.00  1.00  0.00  0.00  0.00  0.26  0.00
  YS02001655YS02001652    1.00   0.00  0.00  0.00  0.92  0.00  0.00  0.08  0.02  0.00
  YS02001658YS02001655    1.00   0.00  0.06  0.00  0.91  0.03  0.00  0.00  0.38  0.00
  YS02001661YS02001658    1.00   0.06  0.00  0.00  0.44  0.50  0.00  0.00  0.72  0.00
  YS02001664YS02001661    1.00   0.05  0.00  0.00  0.83  0.12  0.00  0.00  0.86  0.00
  YSB1154YSB6556          1.00   0.05  0.00  0.00  0.95  0.00  0.00  0.00  0.02  0.00
  YSB1174YSB1171          1.00   0.03  0.01  0.00  0.96  0.00  0.00  0.00  0.00  0.00
  YSB1171HS02004479       1.00   0.03  0.00  0.00  0.97  0.00  0.00  0.00  0.13  0.00
  HS02004881HS02006253    1.00   0.03  0.00  0.00  0.78  0.01  0.00  0.18  0.57  0.00
  YS02001793JiankangQianchi    1.00   0.00  0.00  0.00  0.24  0.76  0.00  0.00  0.24  0.00
  YS02001757CaochengTiaoxuchi    1.00   0.00  0.10  0.00  0.90  0.00  0.00  0.00  0.00  0.00
  WSF200WS02003060        1.00   0.00  0.06  0.00  0.54  0.41  0.00  0.00  0.28  0.00
  1                       1.00   0.00  0.00  0.00  0.00  1.00  0.00  0.00  0.35  0.00
  2                       1.00   0.75  0.00  0.00  0.00  0.25  0.00  0.00  0.06  0.00
  3                       1.00   0.24  0.00  0.00  0.00  0.76  0.00  0.00  0.34  0.00
  4                       1.00   1.00  0.00  0.00  0.00  0.00  0.00  0.00  0.00  0.00
  
  
  *************************
  Conduit Surcharge Summary
  *************************
  
  ----------------------------------------------------------------------------
                                                           Hours        Hours 
                         --------- Hours Full --------   Above Full   Capacity
  Conduit                Both Ends  Upstream  Dnstream   Normal Flow   Limited
  ----------------------------------------------------------------------------
  WS02006229WS02006228        1.55      1.82      1.55      4.08         1.55
  WS02006256WS02006235        5.54      5.55      6.94      3.07         0.01
  WS02006252WS02006251        1.08      1.08      1.76      1.57         0.01
  WS02006251WS02006249        0.01      0.01      0.01      1.04         0.01
  WS02006249WS02006248        0.01      0.01      0.01      4.13         0.01
  WS02006247WS02006245        0.01      0.01      0.01      4.57         0.01
  WS02006245WS02006243        0.01      0.01      0.01      0.03         0.01
  WS02006243WS02006242        0.01      0.01      0.82      0.01         0.01
  WS02006242WS02006240        0.01      0.01      1.10      1.80         0.01
  WS02006240WS02006239        0.01      0.01      0.01      0.02         0.01
  WS02006239WS02006238        0.97      0.97      1.05      0.41         0.39
  WS02006238WS02006235        0.92      0.92      1.25      0.01         0.01
  WS02006235WS02006234        0.01      0.01      0.59      5.55         0.01
  WS02006234WS02006232        0.01      0.01      1.28      0.01         0.01
  WS02006232WS02006231        0.01      0.01      1.28      0.01         0.01
  WS02006231WS02006230        0.01      0.01      0.01      5.58         0.01
  WS02006230WS02006229        2.85      3.68      2.85      5.76         2.85
  WS02006228WS02006109        1.70      2.30      1.70      5.01         1.70
  WS02006111WS02006112        0.01      0.01      4.36      0.01         0.01
  WS02006110WS02006113        0.01      0.01      2.04      0.01         0.01
  WS02006109WS02006110        0.01      0.01      2.30      0.01         0.01
  WS02004404WS02004405        0.01      0.01      0.01      5.51         0.01
  WS02003072WS02003073        0.01      0.01      0.01      4.51         0.01
  YS02001759YS02001757        0.01      0.01      3.06      0.01         0.01
  YS02001649YS02001757        0.01      0.01      3.06      0.01         0.01
  YS02001754YS02001757        0.01      0.01      3.06      0.01         0.01
  YS02001793JiankangQianchi        0.01      0.01      0.68      0.01         0.01
  YS02001757CaochengTiaoxuchi        0.01      0.01      3.06      0.01         0.01
  
  
  ***************
  Pumping Summary
  ***************
  
  ---------------------------------------------------------------------------------------------------------
                                                  Min       Avg       Max     Total     Power    % Time Off
                        Percent   Number of      Flow      Flow      Flow    Volume     Usage    Pump Curve
  Pump                 Utilized   Start-Ups       LPS       LPS       LPS  10^6 ltr     Kw-hr    Low   High
  ---------------------------------------------------------------------------------------------------------
  CC-Pump-1               55.32           5      0.00    122.57    200.00     1.952      8.04    0.0   88.7
  CC-Pump-2               61.49           7      0.00    141.73    200.00     2.467     10.16    0.0   86.4
  JK-Pump-1               74.46           6      0.00    119.26    300.00     2.008     38.11    0.0    0.0
  JK-Pump-2               72.33           8      0.00    117.43    300.00     1.761     33.13    0.0    0.0
  XR-Pump-1               85.09           7      0.00     72.82     95.00     1.710     13.65    0.0    0.0
  XR-Pump-2               82.96          10      0.00     60.12     95.00     1.482     13.26    0.0    0.0
  XR-Pump-3               85.09           7      0.00     75.64     95.00     1.795     13.76    0.0    0.0
  XR-Pump-4               57.43           8      0.00     61.89     95.00     1.026      9.77    0.0    0.0
  

  Analysis begun on:  Tue Dec 21 11:22:11 2021
  Analysis ended on:  Tue Dec 21 11:22:14 2021
  Total elapsed time: 00:00:03