
  EPA STORM WATER MANAGEMENT MODEL - VERSION 5.1 (Build 5.3.0.dev0)
  --------------------------------------------------------------

  WARNING 04: minimum elevation drop used for Conduit WS02004404WS02004405
  WARNING 03: negative offset ignored for Link YS02001904YS02001907
  
  *********************************************************
  NOTE: The summary statistics displayed in this report are
  based on results found at every computational time step,  
  not just on results from each reporting time step.
  *********************************************************
  
  ****************
  Analysis Options
  ****************
  Flow Units ............... LPS
  Process Models:
    Rainfall/Runoff ........ YES
    RDII ................... NO
    Snowmelt ............... NO
    Groundwater ............ NO
    Flow Routing ........... YES
    Ponding Allowed ........ NO
    Water Quality .......... NO
  Infiltration Method ...... HORTON
  Flow Routing Method ...... DYNWAVE
  Surcharge Method ......... EXTRAN
  Starting Date ............ 08/28/2015 08:00:00
  Ending Date .............. 08/28/2015 15:50:00
  Antecedent Dry Days ...... 8.0
  Report Time Step ......... 00:01:00
  Wet Time Step ............ 00:01:00
  Dry Time Step ............ 00:01:00
  Routing Time Step ........ 5.00 sec
  Variable Time Step ....... YES
  Maximum Trials ........... 8
  Number of Threads ........ 4
  Head Tolerance ........... 0.001500 m
  
  
  **************************        Volume         Depth
  Runoff Quantity Continuity     hectare-m            mm
  **************************     ---------       -------
  Total Precipitation ......         2.495         5.462
  Evaporation Loss .........         0.000         0.000
  Infiltration Loss ........         0.624         1.367
  Surface Runoff ...........         1.004         2.198
  Final Storage ............         0.867         1.898
  Continuity Error (%) .....        -0.018
  
  
  **************************        Volume        Volume
  Flow Routing Continuity        hectare-m      10^6 ltr
  **************************     ---------     ---------
  Dry Weather Inflow .......         0.616         6.165
  Wet Weather Inflow .......         1.003        10.034
  Groundwater Inflow .......         0.000         0.000
  RDII Inflow ..............         0.000         0.000
  External Inflow ..........         0.102         1.024
  External Outflow .........         1.509        15.095
  Flooding Loss ............         0.045         0.450
  Evaporation Loss .........         0.000         0.000
  Exfiltration Loss ........         0.000         0.000
  Initial Stored Volume ....         0.076         0.761
  Final Stored Volume ......         0.335         3.345
  Continuity Error (%) .....        -5.048
  
  
  *************************
  Highest Continuity Errors
  *************************
  Node HS02004842 (30.09%)
  Node JK-storage (-26.00%)
  Node YS02001884 (24.57%)
  Node YS02001774 (9.60%)
  Node YSB1171 (7.64%)
  
  
  ***************************
  Time-Step Critical Elements
  ***************************
  Link WS02006252WS02006251 (59.21%)
  Link 3 (27.20%)
  Link WS02006238WS02006235 (7.28%)
  Link WS02006280WS02006229 (1.93%)
  
  
  ********************************
  Highest Flow Instability Indexes
  ********************************
  Link WS02006113WS02006111 (46)
  Link WS02006111WS02006112 (22)
  Link YS02001641YS02001644 (3)
  Link YS02001765YS02001762 (3)
  Link YS02164001YS02001641 (3)
  
  
  *************************
  Routing Time Step Summary
  *************************
  Minimum Time Step           :     0.26 sec
  Average Time Step           :     0.90 sec
  Maximum Time Step           :     5.00 sec
  Percent in Steady State     :    -0.00
  Average Iterations per Step :     2.30
  Percent Not Converging      :     3.67
  
  
  ***************************
  Subcatchment Runoff Summary
  ***************************
  
  ------------------------------------------------------------------------------------------------------------------------------
                            Total      Total      Total      Total     Imperv       Perv      Total       Total     Peak  Runoff
                           Precip      Runon       Evap      Infil     Runoff     Runoff     Runoff      Runoff   Runoff   Coeff
  Subcatchment                 mm         mm         mm         mm         mm         mm         mm    10^6 ltr      LPS
  ------------------------------------------------------------------------------------------------------------------------------
  sub0                       5.46       0.00       0.00       0.38       3.81       0.00       3.81        0.00     1.22   0.698
  sub1                       5.46       0.00       0.00       0.60       3.61       0.00       3.61        0.02     6.40   0.660
  sub2                       5.46       0.00       0.00       2.02       2.54       0.00       2.54        0.02     5.67   0.464
  sub3                       5.46       0.00       0.00       2.02       2.50       0.00       2.50        0.06    11.67   0.458
  sub4                       5.46       0.00       0.00       0.60       3.47       0.00       3.47        0.07    13.12   0.635
  sub5                       5.46       0.00       0.00       0.38       3.77       0.00       3.77        0.04    11.38   0.690
  sub7                       5.46       0.00       0.00       0.49       3.72       0.00       3.72        0.01     4.02   0.680
  sub8                       5.46       0.00       0.00       0.49       3.71       0.00       3.71        0.02     7.09   0.679
  sub9                       5.46       0.00       0.00       0.49       3.70       0.00       3.70        0.02     5.25   0.678
  sub10                      5.46       0.00       0.00       0.44       3.73       0.00       3.73        0.04    11.36   0.684
  sub11                      5.46       0.00       0.00       0.44       3.75       0.00       3.75        0.04    13.33   0.687
  sub12                      5.46       0.00       0.00       0.71       3.56       0.00       3.56        0.03    11.29   0.652
  sub14                      5.46       0.00       0.00       0.49       3.70       0.00       3.70        0.04    10.26   0.678
  sub15                      5.46       0.00       0.00       1.64       2.85       0.00       2.85        0.05    13.93   0.521
  sub16                      5.46       0.00       0.00       1.80       2.74       0.00       2.74        0.03     9.93   0.502
  sub17                      5.46       0.00       0.00       1.75       2.78       0.00       2.78        0.02     8.02   0.509
  sub22                      5.46       0.00       0.00       2.35       2.32       0.00       2.32        0.15    45.61   0.426
  sub23                      5.46       0.00       0.00       2.02       2.57       0.00       2.57        0.12    38.85   0.471
  sub60                      5.46       0.00       0.00       0.66       2.43       0.00       2.43        0.74    67.28   0.446
  sub61                      5.46       0.00       0.00       0.93       2.62       0.00       2.62        0.81    84.42   0.480
  sub62                      5.46       0.00       0.00       0.44       2.81       0.00       2.81        0.86    86.35   0.514
  sub63                      5.46       0.00       0.00       1.58       2.34       0.00       2.34        0.71    78.70   0.429
  sub64                      5.46       0.00       0.00       0.82       2.33       0.00       2.33        0.71    63.86   0.426
  sub65                      5.46       0.00       0.00       0.71       2.35       0.00       2.35        0.72    64.75   0.431
  sub66                      5.46       0.00       0.00       1.58       2.03       0.00       2.03        0.62    58.67   0.373
  sub67                      5.46       0.00       0.00       0.44       3.11       0.00       3.11        0.96   110.55   0.569
  sub68                      5.46       0.00       0.00       0.76       2.80       0.00       2.80        0.86    93.27   0.512
  sub69                      5.46       0.00       0.00       0.82       3.04       0.00       3.04        0.71    92.37   0.557
  sub70                      5.46       3.10       0.00       2.91       3.68       0.00       3.68        0.84    73.56   0.429
  sub71                      5.46       0.00       0.00       0.44       2.68       0.00       2.68        0.63    60.33   0.490
  sub72                      5.46       0.00       0.00       0.38       1.86       0.00       1.86        0.38    28.02   0.340
  sub73                      5.46       3.58       0.00       3.07       3.70       0.00       3.70        0.87    62.93   0.409
  sub74                      5.46       0.00       0.00       4.10       0.92       0.00       0.92        0.37    51.48   0.168
  
  
  ******************
  Node Depth Summary
  ******************
  
  ---------------------------------------------------------------------------------
                                 Average  Maximum  Maximum  Time of Max    Reported
                                   Depth    Depth      HGL   Occurrence   Max Depth
  Node                 Type       Meters   Meters   Meters  days hr:min      Meters
  ---------------------------------------------------------------------------------
  WS02001211           JUNCTION     0.63     0.76     5.59     0  05:51        0.76
  WS02001212           JUNCTION     0.36     0.46     5.53     0  04:01        0.46
  WS02001213           JUNCTION     0.59     0.70     5.46     0  04:02        0.70
  WS02003069           JUNCTION     0.41     0.51     5.09     0  04:04        0.51
  WS02003072           JUNCTION     0.48     0.57     4.94     0  04:04        0.57
  WS02003073           JUNCTION     0.28     0.35     4.41     0  04:05        0.35
  WS02003060           JUNCTION     0.37     0.45     5.38     0  04:03        0.45
  WS02003066           JUNCTION     0.22     0.29     5.85     0  02:41        0.29
  WS02003059           JUNCTION     0.65     0.75     5.44     0  04:02        0.75
  WS02003067           JUNCTION     0.55     0.69     6.01     0  02:40        0.69
  WS02004401           JUNCTION     0.65     0.83     6.83     0  02:37        0.83
  WS02004402           JUNCTION     0.68     0.86     6.82     0  02:37        0.86
  WS02004403           JUNCTION     0.70     0.88     6.81     0  02:37        0.88
  WS02004404           JUNCTION     0.78     0.95     6.80     0  02:37        0.95
  WS02004406           JUNCTION     0.78     0.94     6.77     0  02:37        0.94
  WS02004409           JUNCTION     0.46     0.65     6.42     0  02:39        0.65
  WS02004410           JUNCTION     0.48     0.66     6.38     0  02:39        0.66
  WS02004411           JUNCTION     0.50     0.67     6.35     0  02:40        0.67
  WS02004412           JUNCTION     0.52     0.68     6.32     0  02:40        0.68
  WS02004413           JUNCTION     0.68     0.84     6.31     0  02:40        0.84
  WS02004405           JUNCTION     0.77     0.94     6.79     0  02:37        0.94
  WS02006109           JUNCTION     0.72     0.96     7.58     0  02:32        0.96
  WS02006110           JUNCTION     0.72     0.91     7.50     0  02:32        0.91
  WS02006111           JUNCTION     0.21     0.28     6.99     0  02:33        0.28
  WS02006112           JUNCTION     0.81     1.03     6.91     0  02:37        1.02
  WS02006113           JUNCTION     0.32     0.45     7.34     0  02:32        0.45
  WS02006115           JUNCTION     0.54     0.73     6.87     0  02:36        0.73
  WS02006116           JUNCTION     0.62     0.81     6.85     0  02:36        0.81
  WS02006230           JUNCTION     0.68     1.01     7.76     0  02:32        1.01
  WS02006231           JUNCTION     0.45     0.69     7.81     0  02:32        0.68
  WS02006232           JUNCTION     0.59     0.82     7.86     0  02:32        0.82
  WS02006234           JUNCTION     0.50     0.76     7.92     0  02:32        0.76
  WS02006235           JUNCTION     0.54     0.80     7.96     0  02:31        0.80
  WS02006238           JUNCTION     0.56     0.82     7.97     0  02:31        0.82
  WS02006240           JUNCTION     0.45     0.75     8.04     0  02:31        0.74
  WS02006242           JUNCTION     0.51     0.81     8.08     0  02:31        0.81
  WS02006243           JUNCTION     0.39     0.70     8.12     0  02:31        0.70
  WS02006245           JUNCTION     0.37     0.67     8.15     0  02:31        0.66
  WS02006247           JUNCTION     0.39     0.67     8.17     0  02:31        0.67
  WS02006248           JUNCTION     0.34     0.60     8.19     0  02:31        0.60
  WS02006249           JUNCTION     0.38     0.61     8.21     0  02:31        0.61
  WS02006239           JUNCTION     0.51     0.80     8.01     0  02:31        0.79
  WS02006251           JUNCTION     0.37     0.62     8.29     0  02:30        0.62
  WS02006252           JUNCTION     0.33     0.59     8.83     0  03:59        0.58
  WS02006253           JUNCTION     0.39     0.65     8.29     0  02:30        0.64
  WS02006256           JUNCTION     1.00     1.18     8.11     0  02:31        1.18
  WS02004138           JUNCTION     0.14     0.19     7.44     0  02:00        0.19
  WS02004407           JUNCTION     0.21     0.29     6.60     0  02:38        0.29
  WS02006228           JUNCTION     0.72     1.00     7.65     0  02:32        1.00
  WS02006229           JUNCTION     0.69     0.99     7.69     0  02:32        0.99
  WS02006280           JUNCTION     0.05     0.14     8.41     0  02:20        0.14
  WS02006284           JUNCTION     0.34     0.47     8.87     0  02:20        0.47
  WS02006287           JUNCTION     0.08     0.20     9.15     0  02:20        0.20
  WSF200               JUNCTION     0.20     0.30     5.53     0  02:39        0.30
  HS02004901           JUNCTION     0.11     0.22    10.04     0  02:17        0.22
  HS02004881           JUNCTION     0.01     0.02     9.05     0  02:19        0.02
  HS02004876           JUNCTION     0.03     0.10     9.13     0  02:19        0.10
  HS02004870           JUNCTION     0.01     0.04     9.32     0  02:20        0.04
  HS02004862           JUNCTION     0.01     0.04     9.43     0  02:21        0.04
  HS02004856           JUNCTION     0.07     0.10     9.53     0  02:20        0.10
  HS02004852           JUNCTION     0.01     0.02     9.54     0  02:21        0.02
  HS02004848           JUNCTION     0.01     0.02     9.63     0  02:19        0.02
  HS02004842           JUNCTION     0.33     0.36     9.63     0  02:19        0.36
  HS02004837           JUNCTION     0.03     0.04     9.62     0  02:19        0.04
  HS02004830           JUNCTION     0.04     0.06     9.53     0  02:20        0.06
  HS02004824           JUNCTION     0.02     0.04     9.44     0  02:23        0.04
  HS02004817           JUNCTION     0.42     0.51     9.36     0  02:20        0.51
  HS02004807           JUNCTION     0.11     0.19     9.36     0  02:20        0.19
  HS02004802           JUNCTION     0.15     0.23     9.35     0  02:20        0.23
  HS02004799           JUNCTION     0.10     0.24     9.45     0  02:18        0.24
  HS02004792           JUNCTION     0.02     0.09     9.61     0  02:17        0.09
  HS02004788           JUNCTION     0.02     0.07     9.96     0  02:18        0.07
  HS02004785           JUNCTION     0.03     0.12    10.03     0  02:18        0.12
  HS02004777           JUNCTION     0.13     0.24    10.04     0  02:18        0.24
  HS02004770           JUNCTION     0.10     0.21    10.04     0  02:18        0.21
  HS02004480           JUNCTION     0.06     0.18     9.42     0  02:18        0.18
  HS02004479           JUNCTION     0.10     0.22     9.43     0  02:18        0.22
  HS02004478           JUNCTION     0.05     0.12     9.34     0  02:19        0.12
  YS02001745           JUNCTION     0.07     0.11     7.63     0  03:01        0.11
  YS02001748           JUNCTION     0.34     0.50     7.58     0  05:12        0.50
  YS02001751           JUNCTION     0.52     0.70     7.58     0  05:09        0.69
  YS02001754           JUNCTION     0.76     0.98     7.58     0  05:10        0.97
  YS02001762           JUNCTION     0.96     1.21     7.61     0  04:23        1.17
  YS02001765           JUNCTION     0.91     1.16     7.61     0  04:23        1.12
  YS02001767           JUNCTION     0.88     1.15     7.64     0  03:56        1.08
  YS02001770           JUNCTION     0.87     1.09     7.59     0  04:40        1.07
  YS02001774           JUNCTION     0.94     1.15     7.57     0  04:40        1.15
  YS02001779           JUNCTION     0.69     0.89     7.58     0  04:45        0.88
  YS02001882           JUNCTION     0.27     0.43     7.14     0  02:58        0.43
  YS02001884           JUNCTION     0.36     0.53     7.14     0  02:58        0.52
  YS02001759           JUNCTION     0.99     1.22     7.58     0  04:23        1.20
  YS02001887           JUNCTION     0.44     0.60     7.14     0  02:58        0.60
  YS02001890           JUNCTION     0.47     0.63     7.14     0  02:58        0.63
  YS02001898           JUNCTION     0.24     0.39     7.12     0  02:59        0.39
  YS02001901           JUNCTION     0.36     0.52     7.12     0  02:59        0.52
  YS02001904           JUNCTION     0.34     0.49     7.12     0  03:00        0.49
  YS02001907           JUNCTION     0.66     0.83     7.12     0  02:59        0.83
  YS02001910           JUNCTION     0.45     0.62     7.12     0  02:59        0.62
  YS02001915           JUNCTION     0.26     0.40     7.12     0  02:59        0.40
  YS02001918           JUNCTION     0.07     0.09     7.16     0  03:03        0.09
  YS02001619           JUNCTION     0.48     0.65     7.58     0  05:15        0.65
  YS02001629           JUNCTION     0.82     1.02     7.57     0  05:13        1.02
  YS02001641           JUNCTION     0.93     1.18     7.62     0  04:29        1.15
  YS02001644           JUNCTION     0.93     1.16     7.59     0  04:31        1.15
  YS02001652           JUNCTION     0.78     0.98     7.58     0  05:09        0.98
  YS02001655           JUNCTION     0.54     0.73     7.58     0  05:22        0.72
  YS02001920           JUNCTION     0.17     0.20     7.20     0  03:03        0.20
  YS02001923           JUNCTION     0.06     0.08     7.34     0  03:02        0.08
  YS02001926           JUNCTION     0.13     0.17     7.61     0  03:02        0.17
  YS02001929           JUNCTION     0.06     0.08     7.77     0  03:01        0.08
  YS02001658           JUNCTION     0.28     0.43     7.57     0  05:09        0.42
  YS02001661           JUNCTION     0.14     0.19     7.59     0  02:50        0.19
  YS02001664           JUNCTION     0.06     0.11     8.03     0  02:49        0.11
  YS02001622           JUNCTION     0.50     0.66     7.57     0  05:13        0.66
  YS02001633           JUNCTION     0.91     1.22     7.68     0  04:31        1.13
  YS02001649           JUNCTION     0.97     1.18     7.57     0  05:14        1.18
  YS02001757           JUNCTION     1.09     1.31     7.57     0  05:18        1.30
  YS02001895           JUNCTION     0.24     0.39     7.13     0  02:59        0.39
  YS02001625           JUNCTION     0.78     0.97     7.57     0  05:16        0.96
  YS02163301           JUNCTION     0.85     1.15     7.67     0  04:31        1.06
  YS02163601           JUNCTION     0.97     1.22     7.62     0  04:30        1.19
  YS02164001           JUNCTION     0.91     1.17     7.63     0  04:29        1.13
  YS02001647           JUNCTION     0.76     0.97     7.58     0  05:15        0.97
  YSB1154              JUNCTION     0.24     0.37     9.43     0  02:19        0.37
  YSB6556              JUNCTION     0.13     0.26     9.43     0  02:18        0.26
  YSB1174              JUNCTION     0.19     0.32     9.43     0  02:18        0.32
  YSB1171              JUNCTION     0.39     0.52     9.43     0  02:18        0.52
  YS02006553           JUNCTION     0.67     0.84     7.12     0  02:59        0.84
  YS02006561           JUNCTION     0.13     0.21     6.87     0  03:00        0.21
  YS02006556           JUNCTION     0.64     0.81     7.12     0  03:00        0.81
  YS02006558           JUNCTION     0.69     0.85     7.12     0  03:00        0.85
  YS02001783           JUNCTION     0.23     0.38     6.52     0  03:00        0.38
  YS02001784           JUNCTION     0.26     0.43     6.50     0  03:37        0.43
  YS02001786           JUNCTION     0.22     0.43     6.46     0  03:37        0.43
  YS02001788           JUNCTION     0.16     0.47     6.45     0  03:36        0.47
  YS02001790           JUNCTION     0.21     1.96     7.60     0  03:35        0.80
  YS02001791           JUNCTION     0.16     1.78     7.25     0  03:31        0.96
  YS02001793           JUNCTION     0.19     2.71     7.55     0  03:26        1.59
  WS02004139           JUNCTION     0.57     0.70     5.61     0  05:50        0.70
  WSC                  OUTFALL      0.28     0.35     1.02     0  04:06        0.35
  3                    OUTFALL      0.06     0.18     6.18     0  02:31        0.18
  4                    OUTFALL      0.01     0.11     7.11     0  02:31        0.11
  5                    OUTFALL      0.00     0.00     5.00     0  00:00        0.00
  JK-storage           STORAGE      1.11     5.62     6.42     0  03:37        5.62
  CC-storage           STORAGE      0.35     0.55     7.55     0  05:10        0.55
  XR-storage           STORAGE      6.48     7.72     5.72     0  04:18        7.72
  
  
  *******************
  Node Inflow Summary
  *******************
  
  -------------------------------------------------------------------------------------------------
                                  Maximum  Maximum                  Lateral       Total        Flow
                                  Lateral    Total  Time of Max      Inflow      Inflow     Balance
                                   Inflow   Inflow   Occurrence      Volume      Volume       Error
  Node                 Type           LPS      LPS  days hr:min    10^6 ltr    10^6 ltr     Percent
  -------------------------------------------------------------------------------------------------
  WS02001211           JUNCTION      7.35   381.19     0  02:00       0.207        6.29       0.360
  WS02001212           JUNCTION      0.00   376.95     0  02:00           0        6.26       0.217
  WS02001213           JUNCTION      0.00   375.84     0  02:01           0        6.25       0.306
  WS02003069           JUNCTION      0.32   736.55     0  04:03     0.00902        13.1       0.204
  WS02003072           JUNCTION      0.00   736.50     0  04:04           0          13       0.257
  WS02003073           JUNCTION      1.82   738.55     0  04:05      0.0514        13.1       0.284
  WS02003060           JUNCTION     16.53   735.79     0  04:03       0.466        13.1       0.195
  WS02003066           JUNCTION      0.00   509.53     0  02:41           0        6.43       0.079
  WS02003059           JUNCTION      0.00   374.26     0  02:01           0        6.23       0.519
  WS02003067           JUNCTION      0.00   509.51     0  02:40           0        6.44       0.161
  WS02004401           JUNCTION      0.00   517.97     0  02:36           0         6.7       0.359
  WS02004402           JUNCTION      0.00   517.54     0  02:37           0        6.68       0.335
  WS02004403           JUNCTION      0.00   517.18     0  02:37           0        6.65       0.301
  WS02004404           JUNCTION      0.16   516.95     0  02:37     0.00457        6.64       0.224
  WS02004406           JUNCTION      0.00   517.16     0  02:37           0         6.6       0.545
  WS02004409           JUNCTION      0.00   516.56     0  02:38           0        6.56       0.299
  WS02004410           JUNCTION      0.00   513.67     0  02:38           0        6.54       0.331
  WS02004411           JUNCTION      0.00   511.71     0  02:38           0        6.52       0.336
  WS02004412           JUNCTION      0.00   510.35     0  02:39           0        6.49       0.356
  WS02004413           JUNCTION      0.00   509.68     0  02:40           0        6.47       0.516
  WS02004405           JUNCTION      0.04   517.05     0  02:37     0.00107        6.62       0.333
  WS02006109           JUNCTION      1.23   527.01     0  02:32      0.0347        6.81       0.313
  WS02006110           JUNCTION      0.00   527.03     0  02:32           0        6.79       0.317
  WS02006111           JUNCTION      0.00   545.81     0  02:33           0        6.76       0.076
  WS02006112           JUNCTION      8.02   536.15     0  02:33      0.0238        6.78       0.466
  WS02006113           JUNCTION      0.00   527.64     0  02:32           0        6.77       0.172
  WS02006115           JUNCTION      0.00   531.29     0  02:33           0        6.74       0.349
  WS02006116           JUNCTION      0.00   522.79     0  02:33           0        6.72       0.327
  WS02006230           JUNCTION     10.28   393.57     0  04:02        0.29        5.98       0.239
  WS02006231           JUNCTION      0.00   384.65     0  04:02           0        5.71       0.259
  WS02006232           JUNCTION      0.00   384.70     0  04:02           0        5.72       0.306
  WS02006234           JUNCTION      0.00   386.20     0  04:01           0        5.73       0.175
  WS02006235           JUNCTION      0.00   386.38     0  04:01           0        5.78       0.215
  WS02006238           JUNCTION      0.00   332.37     0  05:30           0        3.85       0.227
  WS02006240           JUNCTION      0.00   334.30     0  05:30           0        3.85       0.406
  WS02006242           JUNCTION      0.00   339.83     0  03:11           0        3.85       0.488
  WS02006243           JUNCTION      0.00   345.11     0  03:11           0        3.84      -0.088
  WS02006245           JUNCTION      0.00   348.94     0  03:11           0        3.86       0.416
  WS02006247           JUNCTION      0.00   353.11     0  03:10           0        3.87       0.271
  WS02006248           JUNCTION      0.00   357.33     0  03:10           0        3.87       0.149
  WS02006249           JUNCTION      0.00   422.41     0  02:30           0         4.1       0.423
  WS02006239           JUNCTION      0.00   333.95     0  05:30           0        3.85       0.350
  WS02006251           JUNCTION      0.08   425.06     0  02:30     0.00217        4.15       0.335
  WS02006252           JUNCTION      0.00   400.00     0  07:30           0        3.99       0.013
  WS02006253           JUNCTION      1.22    35.35     0  02:19     0.00309       0.165       5.281
  WS02006256           JUNCTION      0.00   496.14     0  04:26           0        3.83       0.080
  WS02004138           JUNCTION      0.00   379.99     0  05:30           0         6.1       0.058
  WS02004407           JUNCTION      0.00   516.79     0  02:37           0        6.57       0.133
  WS02006228           JUNCTION      0.00   525.78     0  02:32           0        6.79       0.232
  WS02006229           JUNCTION      0.00   525.29     0  02:32           0        6.81       0.195
  WS02006280           JUNCTION      0.00   183.55     0  02:20           0       0.839       0.008
  WS02006284           JUNCTION      0.10   183.55     0  02:20      0.0027        0.84       0.128
  WS02006287           JUNCTION      0.00   183.47     0  02:19           0       0.838       0.086
  WSF200               JUNCTION      0.00   509.56     0  02:41           0        6.42       0.081
  HS02004901           JUNCTION      9.93     9.93     0  02:11      0.0287      0.0288       6.492
  HS02004881           JUNCTION      4.02    34.42     0  02:19      0.0125       0.131       0.186
  HS02004876           JUNCTION      6.40    30.69     0  02:19       0.024       0.119       0.444
  HS02004870           JUNCTION      7.09    24.41     0  02:19      0.0237      0.0952       0.112
  HS02004862           JUNCTION      5.87    17.79     0  02:20      0.0293      0.0717       0.233
  HS02004856           JUNCTION      5.25    11.97     0  02:19      0.0178      0.0439       3.385
  HS02004852           JUNCTION      0.00     7.04     0  02:19           0      0.0261       0.193
  HS02004848           JUNCTION     11.67    11.67     0  02:23      0.0563      0.0563       0.078
  HS02004842           JUNCTION      0.00     5.01     0  02:33           0      0.0432      43.033
  HS02004837           JUNCTION     17.71    22.03     0  02:18        0.22        0.25       0.326
  HS02004830           JUNCTION      0.15    22.16     0  02:19     0.00423       0.241       0.514
  HS02004824           JUNCTION     13.17    35.16     0  02:23      0.0738       0.313       0.172
  HS02004817           JUNCTION      0.60    35.76     0  02:23      0.0169        0.33       5.323
  HS02004807           JUNCTION     13.33    47.90     0  02:21      0.0435       0.357       1.199
  HS02004802           JUNCTION      0.00    48.08     0  02:22           0       0.352       1.165
  HS02004799           JUNCTION     10.26   115.46     0  02:17      0.0352       0.431       0.529
  HS02004792           JUNCTION     45.89   105.41     0  02:17       0.155       0.396       0.104
  HS02004788           JUNCTION     15.60    61.35     0  02:18       0.096       0.243       0.161
  HS02004785           JUNCTION      0.15    46.15     0  02:17     0.00423       0.149       0.326
  HS02004777           JUNCTION      0.03    46.52     0  02:16    0.000846       0.149       3.603
  HS02004770           JUNCTION     38.85    47.67     0  02:13       0.123        0.15       2.114
  HS02004480           JUNCTION      0.00   136.20     0  02:18           0       0.502       0.143
  HS02004479           JUNCTION      0.00    21.12     0  02:20           0      0.0833       0.883
  HS02004478           JUNCTION      0.00   183.48     0  02:19           0       0.839       0.075
  YS02001745           JUNCTION     67.29    67.29     0  03:01       0.738       0.738       0.106
  YS02001748           JUNCTION      0.04   174.24     0  03:35     0.00127       0.822       0.230
  YS02001751           JUNCTION      0.01   220.52     0  03:38     0.00031        0.82       1.131
  YS02001754           JUNCTION      0.26   167.25     0  03:37     0.00733       0.778       2.154
  YS02001762           JUNCTION      0.00   125.46     0  03:53           0       0.816       2.361
  YS02001765           JUNCTION      0.00    98.94     0  03:43           0       0.816       2.662
  YS02001767           JUNCTION      0.54   143.44     0  03:55      0.0151       0.833       3.637
  YS02001770           JUNCTION     86.51   155.11     0  03:56       0.867       0.966       2.713
  YS02001774           JUNCTION      0.00   111.33     0  03:56           0       0.211      10.616
  YS02001779           JUNCTION      0.01    90.38     0  03:59    0.000141      0.0936      11.979
  YS02001882           JUNCTION      0.00     3.53     0  02:08           0     0.00483      50.942
  YS02001884           JUNCTION      0.00    10.11     0  02:08           0      0.0194      32.582
  YS02001759           JUNCTION     84.46   179.57     0  03:07        0.81        1.59       1.351
  YS02001887           JUNCTION    111.00   111.00     0  02:47       0.971       0.981       0.724
  YS02001890           JUNCTION      0.00   110.36     0  02:49           0       0.958       0.814
  YS02001898           JUNCTION      0.00   109.89     0  02:52           0       0.947       0.224
  YS02001901           JUNCTION      0.00   109.76     0  02:52           0       0.946       0.575
  YS02001904           JUNCTION      0.00   109.38     0  02:53           0       0.945       0.535
  YS02001907           JUNCTION      0.00   199.93     0  03:02           0        2.02       1.095
  YS02001910           JUNCTION      0.00    91.19     0  03:01           0        1.08       0.932
  YS02001915           JUNCTION     60.35    90.96     0  03:01       0.633        1.09       0.408
  YS02001918           JUNCTION      0.00    30.87     0  03:03           0       0.457       0.233
  YS02001619           JUNCTION     58.67    58.67     0  03:01       0.624       0.627       0.622
  YS02001629           JUNCTION      0.00   131.97     0  03:50           0       0.619       2.230
  YS02001641           JUNCTION      0.00   149.18     0  03:32           0        1.24       1.343
  YS02001644           JUNCTION     63.90   194.01     0  04:00       0.708        1.93       1.069
  YS02001652           JUNCTION      0.00   128.67     0  03:35           0       0.752       2.142
  YS02001655           JUNCTION      0.15   205.14     0  03:30     0.00434       0.773       1.381
  YS02001920           JUNCTION      2.87    30.89     0  03:02      0.0809       0.459       0.431
  YS02001923           JUNCTION      0.04    28.02     0  03:02     0.00106       0.379       0.076
  YS02001926           JUNCTION      0.05    28.05     0  03:01     0.00147        0.38       0.541
  YS02001929           JUNCTION     28.02    28.02     0  03:01       0.378       0.378       0.073
  YS02001658           JUNCTION      0.00   159.48     0  03:42           0       0.771       0.281
  YS02001661           JUNCTION      0.00    78.70     0  02:49           0       0.709       0.094
  YS02001664           JUNCTION     78.70    78.70     0  02:49       0.709       0.709       0.023
  YS02001622           JUNCTION      0.00    96.70     0  03:49           0       0.628       1.887
  YS02001633           JUNCTION     64.95   135.28     0  03:03       0.729        1.29       2.092
  YS02001649           JUNCTION      0.00   298.73     0  03:33           0        2.61       1.298
  YS02001757           JUNCTION      0.00   484.03     0  03:01           0        4.82       1.896
  YS02001895           JUNCTION      0.00   110.03     0  02:51           0        0.95       0.382
  YS02001625           JUNCTION      0.00   151.98     0  03:47           0       0.646       4.273
  YS02163301           JUNCTION      0.00   106.12     0  04:31           0       0.581       3.360
  YS02163601           JUNCTION      0.11   146.05     0  03:35      0.0031        1.26       2.172
  YS02164001           JUNCTION      0.00   152.55     0  03:28           0        1.24       1.287
  YS02001647           JUNCTION      0.00   195.21     0  03:12           0        1.89       1.112
  YSB1154              JUNCTION     11.38    11.38     0  02:16      0.0427       0.044       3.391
  YSB6556              JUNCTION      0.00    11.39     0  02:18           0      0.0451       2.842
  YSB1174              JUNCTION     11.29    11.29     0  02:10      0.0311      0.0322       4.157
  YSB1171              JUNCTION      0.00    21.15     0  02:17           0      0.0828       8.268
  YS02006553           JUNCTION      0.00   200.29     0  03:02           0        2.01       0.711
  YS02006561           JUNCTION      0.00   293.07     0  03:00           0        2.84       0.022
  YS02006556           JUNCTION      0.00   200.57     0  03:03           0        2.01       0.513
  YS02006558           JUNCTION     94.15   293.08     0  02:59       0.885        2.87       0.156
  YS02001783           JUNCTION      0.00   293.07     0  03:00           0        2.84       0.052
  YS02001784           JUNCTION      1.06   294.13     0  02:59      0.0299        2.87       0.086
  YS02001786           JUNCTION      0.06   294.18     0  02:59     0.00159        2.87       0.083
  YS02001788           JUNCTION      0.07   294.24     0  03:00       0.002        2.87       0.048
  YS02001790           JUNCTION      0.15   319.80     0  03:42     0.00437        2.87       0.062
  YS02001791           JUNCTION      0.00   356.68     0  03:31           0        2.87       0.021
  YS02001793           JUNCTION      0.00   947.57     0  03:25           0        2.95      -0.011
  WS02004139           JUNCTION      0.32   379.49     0  02:00     0.00905         6.1       0.437
  WSC                  OUTFALL       0.00   738.68     0  04:06           0          13       0.000
  3                    OUTFALL       0.00   412.56     0  02:31           0        1.86       0.000
  4                    OUTFALL       0.00   117.61     0  02:31           0       0.213       0.000
  5                    OUTFALL       0.00     0.00     0  00:00           0           0       0.000 ltr
  JK-storage           STORAGE       0.00  1019.87     0  03:24           0         3.1     -20.634
  CC-storage           STORAGE       0.00   482.29     0  03:03           0        4.69      -0.976
  XR-storage           STORAGE     309.18   309.18     0  03:01        6.88        7.48       0.000
  
  
  **********************
  Node Surcharge Summary
  **********************
  
  Surcharging occurs when water rises above the top of the highest conduit.
  ---------------------------------------------------------------------
                                               Max. Height   Min. Depth
                                   Hours       Above Crown    Below Rim
  Node                 Type      Surcharged         Meters       Meters
  ---------------------------------------------------------------------
  WS02006109           JUNCTION        0.86          0.141        1.679
  WS02006110           JUNCTION        0.04          0.005        1.845
  WS02006112           JUNCTION        0.15          0.027        1.653
  WS02006232           JUNCTION        1.20          0.118        1.362
  WS02006234           JUNCTION        0.11          0.041        1.199
  WS02006235           JUNCTION        0.22          0.086        1.204
  WS02006238           JUNCTION        0.74          0.104        1.326
  WS02006240           JUNCTION        0.09          0.035        1.355
  WS02006242           JUNCTION        0.50          0.083        0.737
  WS02006239           JUNCTION        0.13          0.057        1.233
  WS02006252           JUNCTION        1.64          0.186        0.914
  WS02006228           JUNCTION        0.77          0.167        2.033
  YS02001762           JUNCTION        4.25          0.211        0.939
  YS02001765           JUNCTION        2.87          0.162        0.938
  YS02001767           JUNCTION        2.34          0.154        0.876
  YS02001770           JUNCTION        1.86          0.063        0.857
  YS02001774           JUNCTION        3.43          0.151        0.899
  YS02001759           JUNCTION        4.72          0.220        0.990
  YS02001641           JUNCTION        3.11          0.178        0.922
  YS02001644           JUNCTION        3.26          0.156        0.764
  YS02001633           JUNCTION        2.47          0.203        0.857
  YS02001649           JUNCTION        4.53          0.180        0.870
  YS02001757           JUNCTION        5.23          0.308        0.902
  YS02163301           JUNCTION        2.08          0.151        0.879
  YS02163601           JUNCTION        4.43          0.223        0.857
  YS02164001           JUNCTION        2.73          0.168        0.932
  YS02001790           JUNCTION        0.01          1.157        0.000
  YS02001791           JUNCTION        0.17          0.976        0.944
  YS02001793           JUNCTION        0.36          1.714        0.886
  
  
  *********************
  Node Flooding Summary
  *********************
  
  Flooding refers to all water that overflows a node, whether it ponds or not.
  --------------------------------------------------------------------------
                                                             Total   Maximum
                                 Maximum   Time of Max       Flood    Ponded
                        Hours       Rate    Occurrence      Volume     Depth
  Node                 Flooded       LPS   days hr:min    10^6 ltr    Meters
  --------------------------------------------------------------------------
  YS02001790              0.01     94.65      0  03:35       0.000     0.000
  XR-storage              1.26    227.14      0  07:30       0.450     0.000
  
  
  **********************
  Storage Volume Summary
  **********************
  
  --------------------------------------------------------------------------------------------------
                         Average     Avg  Evap Exfil       Maximum     Max    Time of Max    Maximum
                          Volume    Pcnt  Pcnt  Pcnt        Volume    Pcnt     Occurrence    Outflow
  Storage Unit           1000 m3    Full  Loss  Loss       1000 m3    Full    days hr:min        LPS
  --------------------------------------------------------------------------------------------------
  JK-storage               0.056      19     0     0         0.282      97       0  03:37     835.73
  CC-storage               0.980       6     0     0         1.532      10       0  05:10     400.00
  XR-storage               0.778      84     0     0         0.926     100       0  04:18     379.99
  
  
  ***********************
  Outfall Loading Summary
  ***********************
  
  -----------------------------------------------------------
                         Flow       Avg       Max       Total
                         Freq      Flow      Flow      Volume
  Outfall Node           Pcnt       LPS       LPS    10^6 ltr
  -----------------------------------------------------------
  WSC                   99.99    517.47    738.68      13.019
  3                     69.98    130.67    412.56       1.862
  4                     24.24     40.22    117.61       0.213
  5                      0.00      0.00      0.00       0.000
  -----------------------------------------------------------
  System                48.55    688.36   1064.50      15.095
  
  
  ********************
  Link Flow Summary
  ********************
  
  -----------------------------------------------------------------------------
                                 Maximum  Time of Max   Maximum    Max/    Max/
                                  |Flow|   Occurrence   |Veloc|    Full    Full
  Link                 Type          LPS  days hr:min     m/sec    Flow   Depth
  -----------------------------------------------------------------------------
  WS02003066WSF200     CONDUIT    509.56     0  02:41      2.75    0.09    0.22
  WS02006287WS02006284 CONDUIT    183.45     0  02:20      1.56    0.09    0.21
  WS02006284WS02006280 CONDUIT    183.55     0  02:20      1.80    0.08    0.19
  WS02006280WS02006229 CONDUIT    183.55     0  02:20      2.89    0.04    0.14
  WS02006229WS02006228 CONDUIT    525.78     0  02:32      1.05    1.74    1.00
  WS02006256WS02006235 CONDUIT    166.25     0  00:01      2.58    1.76    1.00
  WS02006253WS02006251 CONDUIT     36.31     0  02:34      0.47    0.11    0.90
  WS02006252WS02006251 CONDUIT    400.10     0  07:30      3.18    1.47    1.00
  WS02006251WS02006249 CONDUIT    422.41     0  02:30      1.20    1.22    0.87
  WS02006249WS02006248 CONDUIT    357.33     0  03:10      1.16    1.96    0.85
  WS02006248WS02006247 CONDUIT    353.11     0  03:10      1.13    0.77    0.90
  WS02006247WS02006245 CONDUIT    348.94     0  03:11      1.09    2.77    0.95
  WS02006245WS02006243 CONDUIT    345.11     0  03:11      1.11    1.02    0.97
  WS02006243WS02006242 CONDUIT    339.83     0  03:11      1.01    0.73    1.00
  WS02006242WS02006240 CONDUIT    334.30     0  05:30      0.96    1.33    1.00
  WS02006240WS02006239 CONDUIT    333.95     0  05:30      0.99    1.05    1.00
  WS02006239WS02006238 CONDUIT    332.37     0  05:30      0.90    1.06    1.00
  WS02006238WS02006235 CONDUIT    330.67     0  05:30      1.25    0.74    1.00
  WS02006235WS02006234 CONDUIT    386.20     0  04:01      1.04    4.07    1.00
  WS02006234WS02006232 CONDUIT    384.70     0  04:02      1.13    0.78    1.00
  WS02006232WS02006231 CONDUIT    384.65     0  04:02      1.05    0.81    0.98
  WS02006231WS02006230 CONDUIT    383.29     0  04:02      1.35    5.81    0.94
  WS02006230WS02006229 CONDUIT    393.08     0  04:03      1.02    8.75    1.00
  WS02006228WS02006109 CONDUIT    525.78     0  02:32      1.05    2.30    1.00
  WS02006116WS02004401 CONDUIT    517.97     0  02:36      0.76    0.71    0.82
  WS02006115WS02006116 CONDUIT    522.79     0  02:33      0.86    0.67    0.74
  WS02006113WS02006111 CONDUIT    545.81     0  02:33      2.44    0.65    0.46
  WS02006112WS02006115 CONDUIT    531.29     0  02:33      0.75    0.31    0.86
  WS02006111WS02006112 CONDUIT    531.20     0  02:33      1.48    0.25    0.67
  WS02006110WS02006113 CONDUIT    527.64     0  02:32      1.25    0.48    0.78
  WS02006109WS02006110 CONDUIT    527.03     0  02:32      1.05    1.01    1.00
  WS02004411WS02004412 CONDUIT    510.35     0  02:39      0.90    0.72    0.68
  WS02004401WS02004402 CONDUIT    517.54     0  02:37      0.77    0.62    0.85
  WS02004413WS02003067 CONDUIT    509.51     0  02:40      1.08    0.22    0.58
  WS02004412WS02004413 CONDUIT    509.68     0  02:40      0.79    0.34    0.76
  WS02004410WS02004411 CONDUIT    511.71     0  02:38      0.92    0.70    0.67
  WS02004409WS02004410 CONDUIT    513.67     0  02:38      0.96    0.66    0.66
  WS02004407WS02004409 CONDUIT    516.56     0  02:38      1.47    0.18    0.47
  WS02004406WS02004407 CONDUIT    516.79     0  02:37      1.02    0.23    0.62
  WS02004405WS02004406 CONDUIT    517.16     0  02:37      0.67    1.02    0.94
  WS02004404WS02004405 CONDUIT    517.02     0  02:37      0.84    5.07    0.95
  WS02004403WS02004404 CONDUIT    516.79     0  02:37      0.74    0.37    0.91
  WS02004402WS02004403 CONDUIT    517.18     0  02:37      0.76    0.74    0.87
  WS02004139WS02001211 CONDUIT    373.84     0  02:00      0.81    0.47    0.56
  WS02004138WS02004139 CONDUIT    379.17     0  02:00      3.33    0.08    0.42
  WS02003067WS02003066 CONDUIT    509.53     0  02:41      1.17    0.16    0.41
  WS02001213WS02003059 CONDUIT    374.26     0  02:01      0.80    0.62    0.72
  WS02001212WS02001213 CONDUIT    375.84     0  02:01      1.31    0.58    0.42
  WS02001211WS02001212 CONDUIT    376.95     0  02:00      0.77    0.29    0.61
  WS02003072WS02003073 CONDUIT    736.73     0  04:05      1.59    1.59    0.43
  WS02003069WS02003072 CONDUIT    736.50     0  04:04      1.50    0.35    0.45
  WS02003060WS02003069 CONDUIT    736.23     0  04:03      1.76    0.29    0.40
  WS02003059WS02003060 CONDUIT    371.58     0  02:02      0.92    0.24    0.60
  HS02004901HS02004770 CONDUIT      9.10     0  02:16      0.04    0.03    0.31
  HS02004876HS02004881 CONDUIT     30.74     0  02:20      0.52    0.33    0.09
  HS02004870HS02004876 CONDUIT     24.40     0  02:20      0.36    0.02    0.10
  HS02004842HS02004848 CONDUIT      5.01     0  02:33      0.03    0.00    0.27
  HS02004837HS02004842 CONDUIT      5.17     0  02:33      0.41    0.00    0.29
  HS02004830HS02004837 CONDUIT     22.01     0  02:19      0.43    0.02    0.07
  HS02004824HS02004830 CONDUIT     22.16     0  02:20      0.47    0.03    0.07
  HS02004817HS02004824 CONDUIT     35.16     0  02:23      0.17    0.02    0.39
  HS02004770HS02004777 CONDUIT     46.49     0  02:16      0.21    0.09    0.32
  HS02004799HS02004480 CONDUIT    115.29     0  02:17      0.56    0.15    0.30
  HS02004792HS02004799 CONDUIT    105.35     0  02:17      0.64    0.06    0.23
  HS02004788HS02004792 CONDUIT     61.30     0  02:18      0.80    0.04    0.11
  HS02004785HS02004788 CONDUIT     46.02     0  02:18      0.48    0.35    0.14
  HS02004777HS02004785 CONDUIT     46.00     0  02:17      0.25    0.06    0.26
  HS02004480HS02004478 CONDUIT    136.16     0  02:18      0.92    0.57    0.21
  HS02004479HS02004480 CONDUIT     21.30     0  02:21      0.15    0.02    0.29
  HS02004862HS02004870 CONDUIT     17.75     0  02:21      0.44    0.02    0.06
  HS02004848HS02004852 CONDUIT      7.04     0  02:19      0.29    0.01    0.03
  HS02004856HS02004862 CONDUIT     11.94     0  02:20      0.32    0.01    0.05
  HS02004852HS02004856 CONDUIT      7.01     0  02:21      0.11    0.01    0.09
  HS02004802HS02004478 CONDUIT     48.33     0  02:23      0.29    0.04    0.24
  HS02004478WS02006287 CONDUIT    183.47     0  02:19      1.26    0.05    0.16
  HS02004817HS02004807 CONDUIT     36.17     0  02:25      0.10    0.02    0.50
  HS02004807HS02004802 CONDUIT     48.08     0  02:22      0.24    0.09    0.29
  YS02001759YS02001757 CONDUIT    180.55     0  03:07      0.23    0.13    1.00
  YS02001762YS02001759 CONDUIT    118.53     0  03:34      0.18    0.14    1.00
  YS02001765YS02001762 CONDUIT    125.46     0  03:53      0.23    0.12    1.00
  YS02001770YS02001767 CONDUIT    138.55     0  03:56      0.31    0.55    1.00
  YS02001774YS02001770 CONDUIT    111.33     0  03:56      0.14    0.07    1.00
  YS02001779YS02001774 CONDUIT     90.38     0  03:59      0.12    0.05    0.94
  YS02001649YS02001757 CONDUIT    299.68     0  03:29      0.38    0.18    1.00
  YS02001767YS02001765 CONDUIT     98.94     0  03:43      0.25    0.12    1.00
  YS02006561YS02001783 CONDUIT    293.07     0  03:00      1.75    0.15    0.37
  YS02001783YS02001784 CONDUIT    293.07     0  02:59      1.21    0.40    0.49
  YS02001784YS02001785 CONDUIT    294.12     0  02:59      1.28    0.68    0.54
  YS02001788YS02001790 CONDUIT    319.64     0  03:42      1.84    0.24    0.79
  YS02001790YS02001791 CONDUIT    356.68     0  03:31      2.13    0.39    1.00
  YS02001791YS02001793 CONDUIT    516.24     0  03:26      4.30    0.22    1.00
  YS02001910YS02001907 CONDUIT     91.28     0  03:02      0.49    0.05    0.72
  YS02001786YS02001788 CONDUIT    294.17     0  03:00      1.71    0.57    0.56
  YS02001915YS02001910 CONDUIT     91.19     0  03:01      0.44    0.05    0.51
  YS02001918YS02001915 CONDUIT     30.85     0  03:03      0.44    0.02    0.25
  YS02001923YS02001920 CONDUIT     28.02     0  03:02      0.43    0.01    0.14
  YS02001926YS02001923 CONDUIT     27.98     0  03:02      0.47    0.04    0.13
  YS02001929YS02001926 CONDUIT     28.00     0  03:01      0.50    0.01    0.12
  YS02001920YS02001918 CONDUIT     30.87     0  03:03      0.45    0.03    0.14
  YS02001629YS02163301 CONDUIT    106.12     0  04:31      0.14    0.13    1.00
  YS02001619YS02001622 CONDUIT     96.70     0  03:49      0.63    0.14    0.65
  YS02001622YS02001625 CONDUIT    106.69     0  03:37      0.24    0.06    0.81
  YS02001625YS02001629 CONDUIT    131.97     0  03:50      0.24    0.06    0.80
  YS02163301YS02001633 CONDUIT     74.17     0  04:01      0.10    0.07    1.00
  YS02163601YS02164001 CONDUIT    152.55     0  03:28      0.20    0.14    1.00
  YS02164001YS02001641 CONDUIT    149.18     0  03:32      0.19    0.20    1.00
  YS02001641YS02001644 CONDUIT    151.15     0  04:00      0.19    0.49    1.00
  YS02001647YS02001649 CONDUIT    229.03     0  03:58      0.30    0.12    0.99
  YS02006553YS02006556 CONDUIT    200.57     0  03:03      0.30    0.17    0.80
  YS02006556YS02006558 CONDUIT    200.77     0  03:03      0.29    0.16    0.83
  YSB6556YSB1171       CONDUIT     11.53     0  02:21      0.05    0.01    0.56
  YS02001907YS02006553 CONDUIT    200.29     0  03:02      0.24    0.24    0.91
  YS02006558YS02006561 CONDUIT    293.07     0  03:00      2.25    0.65    0.47
  YS02001633YS02163601 CONDUIT    145.94     0  03:35      0.19    0.15    1.00
  YS02001644YS02001647 CONDUIT    195.21     0  03:12      0.27    0.11    0.99
  YS02001745YS02001748 CONDUIT     67.28     0  03:01      1.38    0.03    0.25
  YS02001748YS02001751 CONDUIT    220.51     0  03:38      1.06    0.11    0.59
  YS02001751YS02001754 CONDUIT     82.73     0  03:05      0.94    0.04    0.81
  YS02001754YS02001757 CONDUIT    185.39     0  03:34      0.33    0.07    0.99
  YS02001882YS02001884 CONDUIT      3.53     0  02:08      0.06    0.00    0.45
  YS02001884YS02001887 CONDUIT     10.11     0  02:08      0.06    0.01    0.54
  YS02001890YS02001895 CONDUIT    110.03     0  02:51      0.28    0.05    0.51
  YS02001895YS02001898 CONDUIT    109.89     0  02:52      0.47    0.19    0.37
  YS02001898YS02001901 CONDUIT    109.76     0  02:52      0.32    0.07    0.45
  YS02001901YS02001904 CONDUIT    109.38     0  02:53      0.28    0.17    0.50
  YS02001904YS02001907 CONDUIT    109.43     0  02:55      0.20    0.04    0.66
  YS02001887YS02001890 CONDUIT    110.36     0  02:49      0.23    0.19    0.59
  YS02001652YS02001649 CONDUIT    200.66     0  03:33      0.31    0.10    0.99
  YS02001655YS02001652 CONDUIT    100.14     0  03:06      1.01    0.05    0.84
  YS02001658YS02001655 CONDUIT    204.99     0  03:30      1.22    0.09    0.57
  YS02001661YS02001658 CONDUIT     78.70     0  02:50      1.42    0.03    0.26
  YS02001664YS02001661 CONDUIT     78.70     0  02:49      1.07    0.02    0.15
  YSB1154YSB6556       CONDUIT     11.39     0  02:18      0.19    0.02    0.45
  YSB1174YSB1171       CONDUIT     10.51     0  02:12      0.05    0.02    0.56
  YSB1171HS02004479    CONDUIT     21.12     0  02:20      0.54    0.01    0.43
  HS02004881HS02006253 CONDUIT     34.41     0  02:19      1.59    0.01    0.24
  YS02001793JiankangQianchi CONDUIT   1019.87     0  03:24     12.50    0.08    1.00
  YS02001757CaochengTiaoxuchi CONDUIT    482.29     0  03:03      1.04    0.21    0.77
  WSF200WS02003060     CONDUIT    510.09     0  02:41      1.85    0.11    0.30
  1                    CONDUIT    738.68     0  04:06      3.06    0.26    0.35
  2                    CONDUIT    117.61     0  02:31      5.07    0.28    0.36
  3                    CONDUIT    412.56     0  02:31      9.43    0.66    0.60
  4                    CONDUIT      0.00     0  00:00      0.00    0.00    0.00
  CC-Pump-1            PUMP       200.00     0  02:25              1.00
  CC-Pump-2            PUMP       200.00     0  05:20              1.00
  JK-Pump-1            PUMP       300.00     0  02:50              1.00
  JK-Pump-2            PUMP       300.00     0  00:00              1.00
  XR-Pump-1            PUMP        95.00     0  00:00              1.00
  XR-Pump-2            PUMP        95.00     0  00:00              1.00
  XR-Pump-3            PUMP        95.00     0  00:30              1.00
  XR-Pump-4            PUMP        95.00     0  00:00              1.00
  
  
  ***************************
  Flow Classification Summary
  ***************************
  
  -------------------------------------------------------------------------------------
                      Adjusted    ---------- Fraction of Time in Flow Class ---------- 
                       /Actual         Up    Down  Sub   Sup   Up    Down  Norm  Inlet 
  Conduit               Length    Dry  Dry   Dry   Crit  Crit  Crit  Crit  Ltd   Ctrl  
  -------------------------------------------------------------------------------------
  WS02003066WSF200        1.00   0.06  0.00  0.00  0.00  0.94  0.00  0.00  0.73  0.00
  WS02006287WS02006284    1.00   0.04  0.02  0.00  0.69  0.25  0.00  0.00  0.78  0.00
  WS02006284WS02006280    1.00   0.05  0.00  0.00  0.00  0.00  0.00  0.95  0.00  0.00
  WS02006280WS02006229    1.00   0.05  0.00  0.00  0.00  0.00  0.00  0.95  0.00  0.00
  WS02006229WS02006228    1.00   0.00  0.00  0.00  0.99  0.00  0.00  0.01  0.00  0.00
  WS02006256WS02006235    1.00   0.00  0.00  0.00  1.00  0.00  0.00  0.00  0.00  0.00
  WS02006253WS02006251    1.00   0.03  0.01  0.00  0.95  0.00  0.00  0.00  0.00  0.00
  WS02006252WS02006251    1.00   0.09  0.00  0.00  0.00  0.00  0.91  0.00  0.00  0.00
  WS02006251WS02006249    1.00   0.00  0.00  0.00  1.00  0.00  0.00  0.00  0.31  0.00
  WS02006249WS02006248    1.00   0.00  0.02  0.00  0.84  0.00  0.13  0.00  0.00  0.00
  WS02006248WS02006247    1.00   0.02  0.00  0.00  0.97  0.00  0.00  0.00  0.21  0.00
  WS02006247WS02006245    1.00   0.02  0.00  0.00  0.98  0.00  0.00  0.00  0.00  0.00
  WS02006245WS02006243    1.00   0.01  0.00  0.00  0.94  0.00  0.00  0.04  0.01  0.00
  WS02006243WS02006242    1.00   0.01  0.00  0.00  0.99  0.00  0.00  0.00  0.26  0.00
  WS02006242WS02006240    1.00   0.00  0.00  0.00  1.00  0.00  0.00  0.00  0.00  0.00
  WS02006240WS02006239    1.00   0.00  0.00  0.00  0.95  0.00  0.00  0.04  0.02  0.00
  WS02006239WS02006238    1.00   0.00  0.00  0.00  1.00  0.00  0.00  0.00  0.06  0.00
  WS02006238WS02006235    1.00   0.00  0.00  0.00  1.00  0.00  0.00  0.00  0.00  0.00
  WS02006235WS02006234    1.00   0.00  0.00  0.00  0.95  0.00  0.05  0.00  0.00  0.00
  WS02006234WS02006232    1.00   0.00  0.00  0.00  1.00  0.00  0.00  0.00  0.10  0.00
  WS02006232WS02006231    1.00   0.00  0.00  0.00  0.99  0.00  0.00  0.00  0.00  0.00
  WS02006231WS02006230    1.00   0.00  0.00  0.00  0.48  0.00  0.51  0.00  0.00  0.00
  WS02006230WS02006229    1.00   0.00  0.00  0.00  0.98  0.00  0.00  0.02  0.00  0.00
  WS02006228WS02006109    1.00   0.00  0.00  0.00  1.00  0.00  0.00  0.00  0.00  0.00
  WS02006116WS02004401    1.00   0.03  0.00  0.00  0.97  0.00  0.00  0.00  0.00  0.00
  WS02006115WS02006116    1.00   0.03  0.00  0.00  0.97  0.00  0.00  0.01  0.00  0.00
  WS02006113WS02006111    1.00   0.02  0.00  0.00  0.00  0.98  0.00  0.00  0.12  0.00
  WS02006112WS02006115    1.00   0.02  0.00  0.00  0.97  0.00  0.00  0.00  0.00  0.00
  WS02006111WS02006112    1.00   0.02  0.00  0.00  0.97  0.00  0.00  0.00  0.98  0.00
  WS02006110WS02006113    1.00   0.01  0.01  0.00  0.98  0.00  0.00  0.00  0.00  0.00
  WS02006109WS02006110    1.00   0.00  0.01  0.00  0.98  0.00  0.01  0.00  0.00  0.00
  WS02004411WS02004412    1.00   0.04  0.00  0.00  0.96  0.00  0.00  0.00  0.00  0.00
  WS02004401WS02004402    1.00   0.03  0.00  0.00  0.97  0.00  0.00  0.00  0.00  0.00
  WS02004413WS02003067    1.00   0.04  0.02  0.00  0.00  0.00  0.94  0.00  0.00  0.00
  WS02004412WS02004413    1.00   0.04  0.00  0.00  0.96  0.00  0.00  0.00  0.03  0.00
  WS02004410WS02004411    1.00   0.04  0.00  0.00  0.96  0.00  0.00  0.00  0.04  0.00
  WS02004409WS02004410    1.00   0.04  0.00  0.00  0.96  0.00  0.00  0.00  0.04  0.00
  WS02004407WS02004409    1.00   0.04  0.00  0.00  0.96  0.00  0.00  0.00  0.89  0.00
  WS02004406WS02004407    1.00   0.00  0.04  0.00  0.96  0.00  0.00  0.00  0.00  0.00
  WS02004405WS02004406    1.00   0.00  0.00  0.00  1.00  0.00  0.00  0.00  0.00  0.00
  WS02004404WS02004405    1.00   0.00  0.00  0.00  1.00  0.00  0.00  0.00  0.00  0.00
  WS02004403WS02004404    1.00   0.00  0.03  0.00  0.97  0.00  0.00  0.00  0.01  0.00
  WS02004402WS02004403    1.00   0.03  0.00  0.00  0.97  0.00  0.00  0.00  0.00  0.00
  WS02004139WS02001211    1.00   0.00  0.00  0.00  1.00  0.00  0.00  0.00  0.00  0.00
  WS02004138WS02004139    1.00   0.00  0.00  0.00  0.99  0.01  0.00  0.00  1.00  0.00
  WS02003067WS02003066    1.00   0.06  0.00  0.00  0.94  0.00  0.00  0.00  0.00  0.00
  WS02001213WS02003059    1.00   0.00  0.00  0.00  0.99  0.00  0.00  0.00  0.00  0.00
  WS02001212WS02001213    1.00   0.00  0.00  0.00  0.83  0.00  0.17  0.00  0.00  0.00
  WS02001211WS02001212    1.00   0.00  0.00  0.00  1.00  0.00  0.00  0.00  0.00  0.00
  WS02003072WS02003073    1.00   0.00  0.00  0.00  0.00  0.00  0.00  1.00  0.00  0.00
  WS02003069WS02003072    1.00   0.00  0.00  0.00  0.99  0.01  0.00  0.00  0.28  0.00
  WS02003060WS02003069    1.00   0.00  0.00  0.00  0.98  0.02  0.00  0.00  0.11  0.00
  WS02003059WS02003060    1.00   0.00  0.00  0.00  1.00  0.00  0.00  0.00  0.01  0.00
  HS02004901HS02004770    1.00   0.05  0.00  0.00  0.95  0.00  0.00  0.00  0.02  0.00
  HS02004876HS02004881    1.00   0.02  0.00  0.00  0.98  0.00  0.00  0.00  0.00  0.00
  HS02004870HS02004876    1.00   0.01  0.00  0.00  0.99  0.00  0.00  0.00  0.95  0.00
  HS02004842HS02004848    1.00   0.00  0.05  0.00  0.95  0.00  0.00  0.00  0.69  0.00
  HS02004837HS02004842    1.00   0.00  0.00  0.00  0.99  0.01  0.00  0.00  0.11  0.00
  HS02004830HS02004837    1.00   0.00  0.00  0.00  1.00  0.00  0.00  0.00  0.99  0.00
  HS02004824HS02004830    1.00   0.00  0.00  0.00  1.00  0.00  0.00  0.00  0.00  0.00
  HS02004817HS02004824    1.00   0.00  0.00  0.00  1.00  0.00  0.00  0.00  1.00  0.00
  HS02004770HS02004777    1.00   0.00  0.05  0.00  0.95  0.00  0.00  0.00  0.07  0.00
  HS02004799HS02004480    1.00   0.00  0.03  0.00  0.94  0.00  0.03  0.00  0.00  0.00
  HS02004792HS02004799    1.00   0.00  0.00  0.00  0.99  0.01  0.00  0.00  0.98  0.00
  HS02004788HS02004792    1.00   0.00  0.00  0.00  0.99  0.01  0.00  0.00  0.98  0.00
  HS02004785HS02004788    1.00   0.00  0.00  0.00  1.00  0.00  0.00  0.00  0.00  0.00
  HS02004777HS02004785    1.00   0.00  0.00  0.00  1.00  0.00  0.00  0.00  0.21  0.00
  HS02004480HS02004478    1.00   0.05  0.00  0.00  0.73  0.00  0.00  0.22  0.00  0.00
  HS02004479HS02004480    1.00   0.03  0.00  0.00  0.97  0.00  0.00  0.00  0.16  0.00
  HS02004862HS02004870    1.00   0.00  0.00  0.00  1.00  0.00  0.00  0.00  0.06  0.00
  HS02004848HS02004852    1.00   0.05  0.00  0.00  0.95  0.00  0.00  0.00  0.70  0.00
  HS02004856HS02004862    1.00   0.00  0.07  0.00  0.93  0.00  0.00  0.00  0.74  0.00
  HS02004852HS02004856    1.00   0.05  0.01  0.00  0.95  0.00  0.00  0.00  0.83  0.00
  HS02004802HS02004478    1.00   0.05  0.01  0.00  0.95  0.00  0.00  0.00  0.01  0.00
  HS02004478WS02006287    1.00   0.06  0.00  0.00  0.87  0.07  0.00  0.00  0.80  0.00
  HS02004817HS02004807    1.00   0.00  0.05  0.00  0.95  0.00  0.00  0.00  0.00  0.00
  HS02004807HS02004802    1.00   0.05  0.00  0.00  0.95  0.00  0.00  0.00  0.01  0.00
  YS02001759YS02001757    1.00   0.00  0.00  0.00  1.00  0.00  0.00  0.00  0.17  0.00
  YS02001762YS02001759    1.00   0.00  0.00  0.00  1.00  0.00  0.00  0.00  0.04  0.00
  YS02001765YS02001762    1.00   0.00  0.00  0.00  1.00  0.00  0.00  0.00  0.22  0.00
  YS02001770YS02001767    1.00   0.00  0.00  0.00  1.00  0.00  0.00  0.00  0.00  0.00
  YS02001774YS02001770    1.00   0.00  0.05  0.00  0.94  0.00  0.00  0.00  0.07  0.00
  YS02001779YS02001774    1.00   0.00  0.00  0.00  1.00  0.00  0.00  0.00  0.27  0.00
  YS02001649YS02001757    1.00   0.00  0.00  0.00  1.00  0.00  0.00  0.00  0.19  0.00
  YS02001767YS02001765    1.00   0.00  0.00  0.00  1.00  0.00  0.00  0.00  0.01  0.00
  YS02006561YS02001783    1.00   0.07  0.00  0.00  0.00  0.93  0.00  0.00  0.73  0.00
  YS02001783YS02001784    1.00   0.00  0.07  0.00  0.93  0.00  0.00  0.00  0.00  0.00
  YS02001784YS02001785    1.00   0.00  0.00  0.00  1.00  0.00  0.00  0.00  0.25  0.00
  YS02001788YS02001790    1.00   0.00  0.00  0.00  0.13  0.87  0.00  0.00  0.80  0.00
  YS02001790YS02001791    1.00   0.00  0.00  0.00  0.08  0.92  0.00  0.00  0.47  0.00
  YS02001791YS02001793    1.00   0.00  0.00  0.00  0.11  0.89  0.00  0.00  0.03  0.00
  YS02001910YS02001907    1.00   0.00  0.00  0.00  0.97  0.00  0.00  0.03  0.13  0.00
  YS02001786YS02001788    1.00   0.00  0.00  0.00  0.11  0.89  0.00  0.00  0.00  0.00
  YS02001915YS02001910    1.00   0.00  0.00  0.00  0.99  0.01  0.00  0.00  0.24  0.00
  YS02001918YS02001915    1.00   0.00  0.01  0.00  0.98  0.02  0.00  0.00  0.81  0.00
  YS02001923YS02001920    1.00   0.00  0.00  0.00  1.00  0.00  0.00  0.00  1.00  0.00
  YS02001926YS02001923    1.00   0.00  0.04  0.00  0.00  0.00  0.96  0.00  0.00  0.00
  YS02001929YS02001926    1.00   0.00  0.05  0.00  0.95  0.00  0.00  0.00  0.87  0.00
  YS02001920YS02001918    1.00   0.00  0.01  0.00  0.99  0.00  0.00  0.00  0.00  0.00
  YS02001629YS02163301    1.00   0.06  0.00  0.00  0.93  0.00  0.00  0.00  0.00  0.00
  YS02001619YS02001622    1.00   0.05  0.00  0.00  0.95  0.00  0.00  0.00  0.00  0.00
  YS02001622YS02001625    1.00   0.05  0.00  0.00  0.95  0.00  0.00  0.00  0.13  0.00
  YS02001625YS02001629    1.00   0.05  0.03  0.00  0.91  0.00  0.02  0.00  0.00  0.00
  YS02163301YS02001633    1.00   0.00  0.06  0.00  0.94  0.00  0.00  0.00  0.00  0.00
  YS02163601YS02164001    1.00   0.00  0.04  0.00  0.96  0.00  0.00  0.00  0.00  0.00
  YS02164001YS02001641    1.00   0.01  0.03  0.00  0.96  0.00  0.00  0.00  0.07  0.00
  YS02001641YS02001644    1.00   0.00  0.01  0.00  0.99  0.00  0.00  0.00  0.00  0.00
  YS02001647YS02001649    1.00   0.00  0.07  0.00  0.93  0.00  0.00  0.00  0.01  0.00
  YS02006553YS02006556    1.00   0.02  0.00  0.00  0.98  0.00  0.00  0.00  0.03  0.00
  YS02006556YS02006558    1.00   0.00  0.00  0.00  1.00  0.00  0.00  0.00  0.00  0.00
  YSB6556YSB1171          1.00   0.03  0.02  0.00  0.95  0.00  0.00  0.00  0.00  0.00
  YS02001907YS02006553    1.00   0.00  0.02  0.00  0.97  0.00  0.00  0.00  0.00  0.00
  YS02006558YS02006561    1.00   0.07  0.00  0.00  0.00  0.93  0.00  0.00  0.72  0.00
  YS02001633YS02163601    1.00   0.00  0.01  0.00  0.99  0.00  0.00  0.00  0.20  0.00
  YS02001644YS02001647    1.00   0.00  0.07  0.00  0.93  0.00  0.00  0.00  0.00  0.00
  YS02001745YS02001748    1.00   0.00  0.00  0.00  0.83  0.02  0.00  0.15  0.66  0.00
  YS02001748YS02001751    1.00   0.00  0.00  0.00  0.97  0.03  0.00  0.00  0.25  0.00
  YS02001751YS02001754    1.00   0.00  0.00  0.00  0.92  0.00  0.00  0.08  0.02  0.00
  YS02001754YS02001757    1.00   0.00  0.00  0.00  0.99  0.01  0.00  0.00  0.26  0.00
  YS02001882YS02001884    1.00   0.06  0.00  0.00  0.94  0.00  0.00  0.00  0.00  0.00
  YS02001884YS02001887    1.00   0.03  0.01  0.00  0.96  0.00  0.00  0.00  0.00  0.00
  YS02001890YS02001895    1.00   0.00  0.06  0.00  0.93  0.00  0.00  0.00  0.00  0.00
  YS02001895YS02001898    1.00   0.07  0.00  0.00  0.93  0.00  0.01  0.00  0.00  0.00
  YS02001898YS02001901    1.00   0.06  0.00  0.00  0.93  0.00  0.00  0.00  0.02  0.00
  YS02001901YS02001904    1.00   0.06  0.00  0.00  0.94  0.00  0.00  0.00  0.00  0.00
  YS02001904YS02001907    1.00   0.00  0.06  0.00  0.94  0.00  0.00  0.00  0.00  0.00
  YS02001887YS02001890    1.00   0.00  0.00  0.00  0.97  0.00  0.03  0.00  0.00  0.00
  YS02001652YS02001649    1.00   0.00  0.00  0.00  1.00  0.00  0.00  0.00  0.26  0.00
  YS02001655YS02001652    1.00   0.00  0.00  0.00  0.92  0.00  0.00  0.08  0.02  0.00
  YS02001658YS02001655    1.00   0.00  0.06  0.00  0.91  0.03  0.00  0.00  0.13  0.00
  YS02001661YS02001658    1.00   0.06  0.00  0.00  0.83  0.12  0.00  0.00  0.60  0.00
  YS02001664YS02001661    1.00   0.05  0.00  0.00  0.78  0.17  0.00  0.00  0.86  0.00
  YSB1154YSB6556          1.00   0.05  0.00  0.00  0.95  0.00  0.00  0.00  0.02  0.00
  YSB1174YSB1171          1.00   0.03  0.01  0.00  0.96  0.00  0.00  0.00  0.00  0.00
  YSB1171HS02004479       1.00   0.03  0.00  0.00  0.97  0.00  0.00  0.00  0.13  0.00
  HS02004881HS02006253    1.00   0.03  0.00  0.00  0.70  0.01  0.00  0.26  0.52  0.00
  YS02001793JiankangQianchi    1.00   0.00  0.00  0.00  0.33  0.67  0.00  0.00  0.24  0.00
  YS02001757CaochengTiaoxuchi    1.00   0.00  0.09  0.00  0.91  0.00  0.00  0.00  0.00  0.00
  WSF200WS02003060        1.00   0.00  0.06  0.00  0.68  0.25  0.00  0.00  0.28  0.00
  1                       1.00   0.00  0.00  0.00  0.00  1.00  0.00  0.00  0.42  0.00
  2                       1.00   0.75  0.00  0.00  0.00  0.24  0.00  0.00  0.06  0.00
  3                       1.00   0.30  0.00  0.00  0.00  0.70  0.00  0.00  0.32  0.00
  4                       1.00   1.00  0.00  0.00  0.00  0.00  0.00  0.00  0.00  0.00
  
  
  *************************
  Conduit Surcharge Summary
  *************************
  
  ----------------------------------------------------------------------------
                                                           Hours        Hours 
                         --------- Hours Full --------   Above Full   Capacity
  Conduit                Both Ends  Upstream  Dnstream   Normal Flow   Limited
  ----------------------------------------------------------------------------
  WS02006229WS02006228        0.77      1.13      0.77      3.30         0.77
  WS02006256WS02006235        5.70      5.70      6.90      2.67         0.01
  WS02006252WS02006251        0.81      0.81      1.64      1.43         0.01
  WS02006251WS02006249        0.01      0.01      0.01      0.82         0.01
  WS02006249WS02006248        0.01      0.01      0.01      3.69         0.01
  WS02006247WS02006245        0.01      0.01      0.01      4.17         0.01
  WS02006245WS02006243        0.01      0.01      0.01      0.03         0.01
  WS02006243WS02006242        0.01      0.01      0.50      0.01         0.01
  WS02006242WS02006240        0.09      0.09      0.78      1.58         0.01
  WS02006240WS02006239        0.11      0.11      0.13      0.20         0.01
  WS02006239WS02006238        0.64      0.64      0.74      0.33         0.30
  WS02006238WS02006235        0.41      0.41      1.10      0.01         0.01
  WS02006235WS02006234        0.11      0.11      0.22      5.72         0.01
  WS02006234WS02006232        0.15      0.15      1.20      0.01         0.01
  WS02006232WS02006231        0.01      0.01      1.20      0.01         0.01
  WS02006231WS02006230        0.01      0.01      0.01      5.72         0.01
  WS02006230WS02006229        1.94      2.86      1.94      5.82         1.94
  WS02006228WS02006109        0.86      1.57      0.86      4.90         0.86
  WS02006112WS02006115        0.01      0.01      0.15      0.01         0.01
  WS02006111WS02006112        0.01      0.01      3.58      0.01         0.01
  WS02006110WS02006113        0.01      0.01      1.36      0.01         0.01
  WS02006109WS02006110        0.04      0.04      1.57      0.04         0.01
  WS02004405WS02004406        0.01      0.01      0.01      0.10         0.01
  WS02004404WS02004405        0.01      0.01      0.01      5.59         0.01
  WS02003072WS02003073        0.01      0.01      0.01      4.63         0.01
  YS02001759YS02001757        4.72      4.72      5.23      0.01         0.01
  YS02001762YS02001759        4.25      4.25      4.72      0.01         0.01
  YS02001765YS02001762        2.87      2.87      4.25      0.01         0.01
  YS02001770YS02001767        2.28      2.30      2.34      0.01         0.09
  YS02001774YS02001770        1.86      1.86      3.43      0.01         0.01
  YS02001779YS02001774        0.01      0.01      3.43      0.01         0.01
  YS02001649YS02001757        4.53      4.53      5.23      0.01         0.01
  YS02001767YS02001765        2.34      2.34      2.87      0.01         0.01
  YS02001788YS02001790        0.01      0.01      0.01      0.01         0.01
  YS02001790YS02001791        0.01      0.01      0.17      0.01         0.01
  YS02001791YS02001793        0.17      0.17      0.44      0.01         0.01
  YS02001629YS02163301        0.58      0.58      2.08      0.01         0.01
  YS02163301YS02001633        2.08      2.08      2.84      0.01         0.01
  YS02163601YS02164001        2.73      2.73      4.43      0.01         0.01
  YS02164001YS02001641        2.73      2.73      3.11      0.01         0.01
  YS02001641YS02001644        3.09      3.11      3.26      0.01         0.20
  YS02001647YS02001649        0.01      0.01      4.53      0.01         0.01
  YS02001633YS02163601        2.47      2.47      4.43      0.01         0.01
  YS02001644YS02001647        0.01      0.01      3.26      0.01         0.01
  YS02001754YS02001757        0.01      0.01      5.23      0.01         0.01
  YS02001652YS02001649        0.01      0.01      4.53      0.01         0.01
  YS02001793JiankangQianchi        0.36      0.36      1.79      0.01         0.01
  YS02001757CaochengTiaoxuchi        0.01      0.01      5.23      0.01         0.01
  
  
  ***************
  Pumping Summary
  ***************
  
  ---------------------------------------------------------------------------------------------------------
                                                  Min       Avg       Max     Total     Power    % Time Off
                        Percent   Number of      Flow      Flow      Flow    Volume     Usage    Pump Curve
  Pump                 Utilized   Start-Ups       LPS       LPS       LPS  10^6 ltr     Kw-hr    Low   High
  ---------------------------------------------------------------------------------------------------------
  CC-Pump-1               53.29           5      0.00    136.53    200.00     2.009      7.16    0.0   25.1
  CC-Pump-2               53.28           8      0.00    132.33    200.00     1.980      6.87    0.0   21.1
  JK-Pump-1               61.69           6      0.00    125.24    300.00     1.740     29.30    0.0    0.0
  JK-Pump-2               76.59           6      0.00    122.94    300.00     2.085     31.41    0.0    0.0
  XR-Pump-1               80.84           6      0.00     68.46     95.00     1.568     15.31    0.0    0.0
  XR-Pump-2               89.35           6      0.00     67.77     95.00     1.682     16.36    0.0    0.0
  XR-Pump-3               65.94           8      0.00     65.37     95.00     1.282     14.07    0.0    0.0
  XR-Pump-4               82.98           5      0.00     71.80     95.00     1.568     15.09    0.0    0.0
  

  Analysis begun on:  Tue Dec 21 11:24:00 2021
  Analysis ended on:  Tue Dec 21 11:24:03 2021
  Total elapsed time: 00:00:03