
  EPA STORM WATER MANAGEMENT MODEL - VERSION 5.1 (Build 5.3.0.dev0)
  --------------------------------------------------------------

  WARNING 04: minimum elevation drop used for Conduit WS02004404WS02004405
  WARNING 03: negative offset ignored for Link YS02001904YS02001907
  
  *********************************************************
  NOTE: The summary statistics displayed in this report are
  based on results found at every computational time step,  
  not just on results from each reporting time step.
  *********************************************************
  
  ****************
  Analysis Options
  ****************
  Flow Units ............... LPS
  Process Models:
    Rainfall/Runoff ........ YES
    RDII ................... NO
    Snowmelt ............... NO
    Groundwater ............ NO
    Flow Routing ........... YES
    Ponding Allowed ........ NO
    Water Quality .......... NO
  Infiltration Method ...... HORTON
  Flow Routing Method ...... DYNWAVE
  Surcharge Method ......... EXTRAN
  Starting Date ............ 08/28/2015 08:00:00
  Ending Date .............. 08/28/2015 15:50:00
  Antecedent Dry Days ...... 8.0
  Report Time Step ......... 00:01:00
  Wet Time Step ............ 00:01:00
  Dry Time Step ............ 00:01:00
  Routing Time Step ........ 5.00 sec
  Variable Time Step ....... YES
  Maximum Trials ........... 8
  Number of Threads ........ 4
  Head Tolerance ........... 0.001500 m
  
  
  **************************        Volume         Depth
  Runoff Quantity Continuity     hectare-m            mm
  **************************     ---------       -------
  Total Precipitation ......         3.047         6.671
  Evaporation Loss .........         0.000         0.000
  Infiltration Loss ........         0.769         1.684
  Surface Runoff ...........         1.365         2.989
  Final Storage ............         0.913         1.999
  Continuity Error (%) .....        -0.018
  
  
  **************************        Volume        Volume
  Flow Routing Continuity        hectare-m      10^6 ltr
  **************************     ---------     ---------
  Dry Weather Inflow .......         0.616         6.165
  Wet Weather Inflow .......         1.365        13.646
  Groundwater Inflow .......         0.000         0.000
  RDII Inflow ..............         0.000         0.000
  External Inflow ..........         0.102         1.024
  External Outflow .........         1.613        16.131
  Flooding Loss ............         0.148         1.483
  Evaporation Loss .........         0.000         0.000
  Exfiltration Loss ........         0.000         0.000
  Initial Stored Volume ....         0.076         0.761
  Final Stored Volume ......         0.495         4.948
  Continuity Error (%) .....        -4.482
  
  
  *************************
  Highest Continuity Errors
  *************************
  Node HS02004842 (26.05%)
  Node YS02001774 (25.01%)
  Node JK-storage (-22.96%)
  Node YS02001884 (20.47%)
  Node YSB1171 (6.05%)
  
  
  ***************************
  Time-Step Critical Elements
  ***************************
  Link WS02006252WS02006251 (58.24%)
  Link 3 (32.77%)
  Link WS02006238WS02006235 (3.01%)
  Link WS02006280WS02006229 (1.84%)
  
  
  ********************************
  Highest Flow Instability Indexes
  ********************************
  Link WS02006113WS02006111 (41)
  Link WS02006111WS02006112 (23)
  Link YS02006558YS02006561 (16)
  Link YS02164001YS02001641 (12)
  Link YS02001629YS02163301 (12)
  
  
  *************************
  Routing Time Step Summary
  *************************
  Minimum Time Step           :     0.20 sec
  Average Time Step           :     0.87 sec
  Maximum Time Step           :     5.00 sec
  Percent in Steady State     :    -0.00
  Average Iterations per Step :     3.57
  Percent Not Converging      :    18.27
  
  
  ***************************
  Subcatchment Runoff Summary
  ***************************
  
  ------------------------------------------------------------------------------------------------------------------------------
                            Total      Total      Total      Total     Imperv       Perv      Total       Total     Peak  Runoff
                           Precip      Runon       Evap      Infil     Runoff     Runoff     Runoff      Runoff   Runoff   Coeff
  Subcatchment                 mm         mm         mm         mm         mm         mm         mm    10^6 ltr      LPS
  ------------------------------------------------------------------------------------------------------------------------------
  sub0                       6.67       0.00       0.00       0.47       4.94       0.00       4.94        0.00     1.69   0.740
  sub1                       6.67       0.00       0.00       0.73       4.68       0.00       4.68        0.03     8.99   0.702
  sub2                       6.67       0.00       0.00       2.47       3.30       0.00       3.30        0.03     7.97   0.494
  sub3                       6.67       0.00       0.00       2.47       3.26       0.00       3.26        0.07    16.48   0.489
  sub4                       6.67       0.00       0.00       0.73       4.54       0.00       4.54        0.09    18.57   0.681
  sub5                       6.67       0.00       0.00       0.47       4.89       0.00       4.89        0.06    15.99   0.733
  sub7                       6.67       0.00       0.00       0.60       4.82       0.00       4.82        0.02     5.61   0.722
  sub8                       6.67       0.00       0.00       0.60       4.81       0.00       4.81        0.03     9.92   0.721
  sub9                       6.67       0.00       0.00       0.60       4.80       0.00       4.80        0.02     7.36   0.720
  sub10                      6.67       0.00       0.00       0.53       4.85       0.00       4.85        0.05    15.94   0.726
  sub11                      6.67       0.00       0.00       0.53       4.86       0.00       4.86        0.06    18.64   0.729
  sub12                      6.67       0.00       0.00       0.87       4.62       0.00       4.62        0.04    15.69   0.692
  sub14                      6.67       0.00       0.00       0.60       4.80       0.00       4.80        0.05    14.38   0.720
  sub15                      6.67       0.00       0.00       2.00       3.69       0.00       3.69        0.06    19.52   0.553
  sub16                      6.67       0.00       0.00       2.20       3.55       0.00       3.55        0.04    13.83   0.532
  sub17                      6.67       0.00       0.00       2.13       3.60       0.00       3.60        0.03    11.18   0.540
  sub22                      6.67       0.00       0.00       2.87       3.01       0.00       3.01        0.19    63.78   0.452
  sub23                      6.67       0.00       0.00       2.47       3.33       0.00       3.33        0.16    54.27   0.500
  sub60                      6.67       0.00       0.00       0.80       3.35       0.00       3.35        1.02    97.43   0.502
  sub61                      6.67       0.00       0.00       1.13       3.55       0.00       3.55        1.09   121.21   0.532
  sub62                      6.67       0.00       0.00       0.53       3.82       0.00       3.82        1.17   124.17   0.572
  sub63                      6.67       0.00       0.00       1.93       3.15       0.00       3.15        0.95   112.77   0.472
  sub64                      6.67       0.00       0.00       1.00       3.20       0.00       3.20        0.97    92.59   0.480
  sub65                      6.67       0.00       0.00       0.87       3.25       0.00       3.25        1.00    93.99   0.486
  sub66                      6.67       0.00       0.00       1.93       2.79       0.00       2.79        0.85    84.64   0.418
  sub67                      6.67       0.00       0.00       0.53       4.17       0.00       4.17        1.29   158.23   0.624
  sub68                      6.67       0.00       0.00       0.93       3.77       0.00       3.77        1.16   133.74   0.565
  sub69                      6.67       0.00       0.00       1.00       4.04       0.00       4.04        0.94   131.76   0.605
  sub70                      6.67       4.12       0.00       3.67       5.04       0.00       5.04        1.15   109.50   0.467
  sub71                      6.67       0.00       0.00       0.53       3.66       0.00       3.66        0.86    86.93   0.549
  sub72                      6.67       0.00       0.00       0.47       2.64       0.00       2.64        0.54    41.54   0.395
  sub73                      6.67       4.91       0.00       3.94       5.20       0.00       5.20        1.22    94.59   0.449
  sub74                      6.67       0.00       0.00       5.00       1.21       0.00       1.21        0.49    73.30   0.182
  
  
  ******************
  Node Depth Summary
  ******************
  
  ---------------------------------------------------------------------------------
                                 Average  Maximum  Maximum  Time of Max    Reported
                                   Depth    Depth      HGL   Occurrence   Max Depth
  Node                 Type       Meters   Meters   Meters  days hr:min      Meters
  ---------------------------------------------------------------------------------
  WS02001211           JUNCTION     0.61     0.75     5.59     0  01:11        0.75
  WS02001212           JUNCTION     0.35     0.45     5.51     0  07:13        0.45
  WS02001213           JUNCTION     0.58     0.68     5.44     0  07:14        0.68
  WS02003069           JUNCTION     0.41     0.50     5.09     0  03:33        0.50
  WS02003072           JUNCTION     0.48     0.57     4.94     0  03:33        0.57
  WS02003073           JUNCTION     0.29     0.34     4.41     0  03:34        0.34
  WS02003060           JUNCTION     0.37     0.45     5.38     0  03:32        0.45
  WS02003066           JUNCTION     0.23     0.29     5.84     0  02:33        0.29
  WS02003059           JUNCTION     0.65     0.73     5.42     0  03:32        0.73
  WS02003067           JUNCTION     0.57     0.69     6.01     0  02:32        0.69
  WS02004401           JUNCTION     0.67     0.83     6.83     0  02:29        0.83
  WS02004402           JUNCTION     0.70     0.86     6.82     0  02:29        0.86
  WS02004403           JUNCTION     0.72     0.87     6.80     0  02:29        0.87
  WS02004404           JUNCTION     0.80     0.95     6.80     0  02:29        0.95
  WS02004406           JUNCTION     0.80     0.94     6.77     0  02:29        0.94
  WS02004409           JUNCTION     0.49     0.64     6.41     0  02:32        0.64
  WS02004410           JUNCTION     0.51     0.66     6.38     0  02:32        0.66
  WS02004411           JUNCTION     0.52     0.67     6.35     0  02:32        0.67
  WS02004412           JUNCTION     0.54     0.68     6.32     0  02:32        0.68
  WS02004413           JUNCTION     0.69     0.84     6.31     0  02:32        0.84
  WS02004405           JUNCTION     0.79     0.94     6.79     0  02:29        0.94
  WS02006109           JUNCTION     0.75     0.95     7.57     0  02:25        0.95
  WS02006110           JUNCTION     0.74     0.91     7.49     0  02:25        0.91
  WS02006111           JUNCTION     0.22     0.28     6.99     0  02:26        0.28
  WS02006112           JUNCTION     0.84     1.02     6.90     0  02:28        1.02
  WS02006113           JUNCTION     0.34     0.44     7.34     0  02:26        0.44
  WS02006115           JUNCTION     0.56     0.73     6.87     0  02:29        0.73
  WS02006116           JUNCTION     0.64     0.81     6.85     0  02:29        0.81
  WS02006230           JUNCTION     0.71     0.97     7.71     0  02:25        0.97
  WS02006231           JUNCTION     0.47     0.63     7.75     0  02:25        0.62
  WS02006232           JUNCTION     0.61     0.76     7.80     0  03:03        0.76
  WS02006234           JUNCTION     0.53     0.71     7.86     0  03:03        0.71
  WS02006235           JUNCTION     0.56     0.74     7.90     0  03:03        0.74
  WS02006238           JUNCTION     0.58     0.77     7.91     0  03:03        0.77
  WS02006240           JUNCTION     0.48     0.70     7.99     0  03:21        0.70
  WS02006242           JUNCTION     0.53     0.77     8.04     0  03:21        0.77
  WS02006243           JUNCTION     0.41     0.66     8.08     0  03:21        0.66
  WS02006245           JUNCTION     0.40     0.63     8.11     0  03:21        0.63
  WS02006247           JUNCTION     0.41     0.64     8.14     0  03:21        0.64
  WS02006248           JUNCTION     0.36     0.58     8.16     0  04:47        0.58
  WS02006249           JUNCTION     0.39     0.60     8.19     0  04:48        0.60
  WS02006239           JUNCTION     0.54     0.75     7.95     0  03:21        0.74
  WS02006251           JUNCTION     0.38     0.62     8.29     0  04:49        0.62
  WS02006252           JUNCTION     0.34     0.59     8.83     0  05:48        0.59
  WS02006253           JUNCTION     0.41     0.64     8.29     0  04:48        0.64
  WS02006256           JUNCTION     1.03     2.35     9.28     0  00:00        1.20
  WS02004138           JUNCTION     0.13     0.19     7.44     0  01:10        0.19
  WS02004407           JUNCTION     0.22     0.29     6.60     0  02:30        0.29
  WS02006228           JUNCTION     0.74     0.98     7.63     0  02:25        0.98
  WS02006229           JUNCTION     0.72     0.98     7.67     0  02:25        0.98
  WS02006280           JUNCTION     0.06     0.16     8.43     0  02:17        0.16
  WS02006284           JUNCTION     0.35     0.50     8.90     0  02:17        0.50
  WS02006287           JUNCTION     0.08     0.23     9.19     0  02:16        0.23
  WSF200               JUNCTION     0.22     0.29     5.52     0  02:33        0.29
  HS02004901           JUNCTION     0.11     0.25    10.07     0  02:14        0.25
  HS02004881           JUNCTION     0.01     0.03     9.06     0  02:16        0.03
  HS02004876           JUNCTION     0.04     0.11     9.14     0  02:13        0.11
  HS02004870           JUNCTION     0.01     0.05     9.33     0  02:17        0.05
  HS02004862           JUNCTION     0.01     0.05     9.44     0  02:18        0.05
  HS02004856           JUNCTION     0.07     0.11     9.53     0  02:17        0.11
  HS02004852           JUNCTION     0.01     0.03     9.54     0  02:18        0.03
  HS02004848           JUNCTION     0.01     0.03     9.63     0  02:17        0.03
  HS02004842           JUNCTION     0.33     0.36     9.63     0  02:17        0.36
  HS02004837           JUNCTION     0.03     0.05     9.63     0  02:17        0.05
  HS02004830           JUNCTION     0.04     0.07     9.53     0  02:17        0.07
  HS02004824           JUNCTION     0.02     0.04     9.45     0  02:20        0.04
  HS02004817           JUNCTION     0.43     0.54     9.39     0  02:17        0.54
  HS02004807           JUNCTION     0.11     0.22     9.39     0  02:17        0.22
  HS02004802           JUNCTION     0.15     0.25     9.38     0  02:17        0.25
  HS02004799           JUNCTION     0.10     0.28     9.49     0  02:15        0.28
  HS02004792           JUNCTION     0.03     0.11     9.63     0  02:14        0.11
  HS02004788           JUNCTION     0.02     0.08     9.98     0  02:15        0.08
  HS02004785           JUNCTION     0.04     0.15    10.05     0  02:15        0.15
  HS02004777           JUNCTION     0.14     0.27    10.07     0  02:14        0.27
  HS02004770           JUNCTION     0.11     0.24    10.07     0  02:14        0.24
  HS02004480           JUNCTION     0.07     0.22     9.46     0  02:15        0.22
  HS02004479           JUNCTION     0.10     0.26     9.46     0  02:15        0.26
  HS02004478           JUNCTION     0.05     0.14     9.37     0  02:16        0.14
  YS02001745           JUNCTION     0.26     0.48     8.00     0  05:27        0.47
  YS02001748           JUNCTION     0.64     0.90     7.98     0  05:32        0.90
  YS02001751           JUNCTION     0.83     2.06     8.94     0  04:04        1.11
  YS02001754           JUNCTION     1.08     1.96     8.57     0  04:04        1.37
  YS02001762           JUNCTION     1.27     1.68     8.08     0  04:04        1.60
  YS02001765           JUNCTION     1.23     1.58     8.03     0  04:04        1.57
  YS02001767           JUNCTION     1.19     1.59     8.08     0  04:04        1.55
  YS02001770           JUNCTION     1.19     1.69     8.18     0  04:04        1.56
  YS02001774           JUNCTION     1.25     1.80     8.22     0  04:04        1.64
  YS02001779           JUNCTION     1.01     1.56     8.24     0  04:04        1.38
  YS02001882           JUNCTION     0.31     0.52     7.23     0  02:53        0.52
  YS02001884           JUNCTION     0.41     0.62     7.23     0  02:52        0.62
  YS02001759           JUNCTION     1.31     1.72     8.09     0  04:04        1.62
  YS02001887           JUNCTION     0.49     0.70     7.23     0  02:52        0.70
  YS02001890           JUNCTION     0.52     0.73     7.23     0  02:54        0.72
  YS02001898           JUNCTION     0.29     0.48     7.22     0  02:53        0.48
  YS02001901           JUNCTION     0.40     0.61     7.22     0  02:53        0.61
  YS02001904           JUNCTION     0.38     0.58     7.21     0  02:53        0.58
  YS02001907           JUNCTION     0.71     0.92     7.21     0  02:52        0.92
  YS02001910           JUNCTION     0.50     0.71     7.21     0  02:52        0.71
  YS02001915           JUNCTION     0.30     0.49     7.21     0  02:53        0.49
  YS02001918           JUNCTION     0.09     0.14     7.21     0  02:51        0.14
  YS02001619           JUNCTION     0.79     1.13     8.06     0  04:59        1.06
  YS02001629           JUNCTION     1.14     1.44     7.99     0  05:33        1.41
  YS02001641           JUNCTION     1.24     1.57     8.01     0  03:53        1.52
  YS02001644           JUNCTION     1.25     1.62     8.05     0  03:56        1.53
  YS02001652           JUNCTION     1.09     1.95     8.55     0  03:53        1.36
  YS02001655           JUNCTION     0.85     2.19     9.04     0  03:54        1.11
  YS02001920           JUNCTION     0.19     0.23     7.24     0  03:01        0.23
  YS02001923           JUNCTION     0.07     0.09     7.35     0  03:01        0.09
  YS02001926           JUNCTION     0.15     0.19     7.64     0  03:01        0.19
  YS02001929           JUNCTION     0.07     0.10     7.79     0  03:01        0.10
  YS02001658           JUNCTION     0.59     0.84     7.99     0  05:29        0.83
  YS02001661           JUNCTION     0.36     0.56     7.97     0  05:30        0.56
  YS02001664           JUNCTION     0.08     0.13     8.05     0  02:44        0.13
  YS02001622           JUNCTION     0.81     1.15     8.05     0  05:33        1.06
  YS02001633           JUNCTION     1.23     1.53     7.99     0  04:36        1.50
  YS02001649           JUNCTION     1.28     1.76     8.15     0  03:53        1.57
  YS02001757           JUNCTION     1.41     1.85     8.11     0  04:04        1.70
  YS02001895           JUNCTION     0.28     0.48     7.22     0  02:54        0.48
  YS02001625           JUNCTION     1.09     1.38     7.99     0  05:33        1.34
  YS02163301           JUNCTION     1.17     1.47     7.99     0  04:36        1.44
  YS02163601           JUNCTION     1.28     1.59     7.99     0  05:33        1.56
  YS02164001           JUNCTION     1.22     1.56     8.01     0  03:56        1.50
  YS02001647           JUNCTION     1.08     1.50     8.11     0  03:53        1.35
  YSB1154              JUNCTION     0.24     0.41     9.46     0  02:15        0.41
  YSB6556              JUNCTION     0.14     0.29     9.46     0  02:16        0.29
  YSB1174              JUNCTION     0.19     0.35     9.46     0  02:15        0.35
  YSB1171              JUNCTION     0.39     0.56     9.46     0  02:15        0.56
  YS02006553           JUNCTION     0.72     0.93     7.21     0  02:53        0.93
  YS02006561           JUNCTION     0.16     0.26     6.92     0  02:56        0.26
  YS02006556           JUNCTION     0.69     0.90     7.21     0  02:52        0.89
  YS02006558           JUNCTION     0.73     0.94     7.21     0  02:52        0.94
  YS02001783           JUNCTION     0.29     0.62     6.76     0  03:18        0.62
  YS02001784           JUNCTION     0.33     0.68     6.75     0  03:17        0.67
  YS02001786           JUNCTION     0.29     0.68     6.71     0  03:18        0.67
  YS02001788           JUNCTION     0.24     0.71     6.69     0  03:17        0.70
  YS02001790           JUNCTION     0.33     1.96     7.60     0  03:14        1.02
  YS02001791           JUNCTION     0.30     2.72     8.19     0  03:13        1.16
  YS02001793           JUNCTION     0.38     2.35     7.19     0  03:10        1.78
  WS02004139           JUNCTION     0.55     0.70     5.61     0  01:10        0.70
  WSC                  OUTFALL      0.29     0.34     1.01     0  03:35        0.34
  3                    OUTFALL      0.08     0.23     6.23     0  00:00        0.20
  4                    OUTFALL      0.02     0.10     7.10     0  04:48        0.10
  5                    OUTFALL      0.00     0.00     5.00     0  00:00        0.00
  JK-storage           STORAGE      1.49     5.80     6.60     0  03:16        5.80
  CC-storage           STORAGE      0.65     0.92     7.92     0  05:31        0.92
  XR-storage           STORAGE      7.05     7.72     5.72     0  03:03        7.72
  
  
  *******************
  Node Inflow Summary
  *******************
  
  -------------------------------------------------------------------------------------------------
                                  Maximum  Maximum                  Lateral       Total        Flow
                                  Lateral    Total  Time of Max      Inflow      Inflow     Balance
                                   Inflow   Inflow   Occurrence      Volume      Volume       Error
  Node                 Type           LPS      LPS  days hr:min    10^6 ltr    10^6 ltr     Percent
  -------------------------------------------------------------------------------------------------
  WS02001211           JUNCTION      7.35   381.65     0  01:10       0.207        5.94       0.520
  WS02001212           JUNCTION      0.00   377.75     0  01:11           0        5.91       0.276
  WS02001213           JUNCTION      0.00   376.84     0  01:11           0        5.89       0.347
  WS02003069           JUNCTION      0.32   731.34     0  03:33     0.00902        13.2       0.204
  WS02003072           JUNCTION      0.00   730.83     0  03:33           0        13.2       0.256
  WS02003073           JUNCTION      1.82   732.27     0  03:34      0.0514        13.2       0.286
  WS02003060           JUNCTION     16.53   731.23     0  03:32       0.466        13.2       0.195
  WS02003066           JUNCTION      0.00   505.79     0  02:33           0        6.94       0.064
  WS02003059           JUNCTION      0.00   375.38     0  01:12           0        5.87       0.598
  WS02003067           JUNCTION      0.00   505.71     0  02:32           0        6.95       0.134
  WS02004401           JUNCTION      0.00   515.20     0  02:28           0        7.18       0.295
  WS02004402           JUNCTION      0.00   513.86     0  02:28           0        7.16       0.279
  WS02004403           JUNCTION      0.00   513.43     0  02:28           0        7.14       0.254
  WS02004404           JUNCTION      0.16   513.21     0  02:29     0.00457        7.12       0.191
  WS02004406           JUNCTION      0.00   513.04     0  02:29           0        7.09       0.467
  WS02004409           JUNCTION      0.00   512.97     0  02:30           0        7.05       0.229
  WS02004410           JUNCTION      0.00   509.89     0  02:30           0        7.03       0.260
  WS02004411           JUNCTION      0.00   507.77     0  02:31           0        7.02       0.267
  WS02004412           JUNCTION      0.00   506.60     0  02:32           0           7       0.290
  WS02004413           JUNCTION      0.00   505.96     0  02:32           0        6.98       0.430
  WS02004405           JUNCTION      0.04   513.19     0  02:29     0.00107        7.11       0.289
  WS02006109           JUNCTION      1.23   517.22     0  02:25      0.0347        7.27       0.297
  WS02006110           JUNCTION      0.00   517.23     0  02:25           0        7.25       0.267
  WS02006111           JUNCTION      0.00   536.32     0  02:25           0        7.22       0.058
  WS02006112           JUNCTION     11.18   527.57     0  02:26      0.0309        7.24       0.381
  WS02006113           JUNCTION      0.00   517.27     0  02:25           0        7.23       0.130
  WS02006115           JUNCTION      0.00   524.29     0  02:26           0        7.22       0.278
  WS02006116           JUNCTION      0.00   518.45     0  02:27           0         7.2       0.268
  WS02006230           JUNCTION     10.28   396.04     0  04:46        0.29        6.25       0.219
  WS02006231           JUNCTION      0.00   387.28     0  04:45           0        5.97       0.164
  WS02006232           JUNCTION      0.00   387.33     0  04:45           0        5.98       0.265
  WS02006234           JUNCTION      0.00   389.38     0  04:44           0        5.99       0.124
  WS02006235           JUNCTION      0.00   389.62     0  04:44           0        6.03       0.175
  WS02006238           JUNCTION      0.00   311.24     0  04:50           0        4.04       0.183
  WS02006240           JUNCTION      0.00   315.64     0  04:41           0        4.04       0.279
  WS02006242           JUNCTION      0.00   325.32     0  04:41           0        4.04       0.349
  WS02006243           JUNCTION      0.00   335.37     0  03:01           0        4.03      -0.150
  WS02006245           JUNCTION      0.00   341.69     0  04:41           0        4.04       0.278
  WS02006247           JUNCTION      0.00   348.10     0  03:00           0        4.05       0.168
  WS02006248           JUNCTION      0.00   354.87     0  03:00           0        4.05       0.075
  WS02006249           JUNCTION      0.00   410.13     0  03:00           0        4.29       0.270
  WS02006239           JUNCTION      0.00   311.19     0  05:41           0        4.04       0.275
  WS02006251           JUNCTION      0.08   412.55     0  03:00     0.00217        4.33       0.202
  WS02006252           JUNCTION      0.00   400.00     0  04:40           0        4.13       0.011
  WS02006253           JUNCTION      1.69    50.39     0  02:16       0.004       0.202       1.912
  WS02006256           JUNCTION      0.00   600.00     0  00:00           0        4.75       0.043
  WS02004138           JUNCTION      0.00   379.90     0  07:10           0        5.76       0.065
  WS02004407           JUNCTION      0.00   513.05     0  02:29           0        7.06       0.103
  WS02006228           JUNCTION      0.00   515.99     0  02:25           0        7.25       0.210
  WS02006229           JUNCTION      0.00   515.86     0  02:25           0        7.26       0.169
  WS02006280           JUNCTION      0.00   254.26     0  02:17           0        1.03       0.007
  WS02006284           JUNCTION      0.10   254.25     0  02:16      0.0027        1.03       0.105
  WS02006287           JUNCTION      0.00   254.11     0  02:16           0        1.03       0.071
  WSF200               JUNCTION      0.00   505.81     0  02:33           0        6.93       0.063
  HS02004901           JUNCTION     13.83    13.83     0  02:09      0.0371      0.0373       4.944
  HS02004881           JUNCTION      5.61    49.06     0  02:16      0.0162       0.172       0.169
  HS02004876           JUNCTION      8.99    43.76     0  02:16      0.0311       0.156       0.342
  HS02004870           JUNCTION      9.92    34.94     0  02:16      0.0307       0.125       0.085
  HS02004862           JUNCTION      8.17    25.65     0  02:17      0.0363      0.0944       0.180
  HS02004856           JUNCTION      7.36    17.53     0  02:16      0.0231      0.0595       2.480
  HS02004852           JUNCTION      0.00    10.62     0  02:17           0      0.0365       0.142
  HS02004848           JUNCTION     16.48    16.48     0  02:20      0.0734      0.0734       0.060
  HS02004842           JUNCTION      0.00     6.44     0  02:29           0      0.0499      35.222
  HS02004837           JUNCTION     22.29    27.65     0  02:16       0.232       0.269       0.303
  HS02004830           JUNCTION      0.15    27.78     0  02:17     0.00423        0.26       0.477
  HS02004824           JUNCTION     18.62    46.16     0  02:20      0.0961       0.355       0.152
  HS02004817           JUNCTION      0.60    46.76     0  02:20      0.0169       0.371       4.704
  HS02004807           JUNCTION     18.64    63.78     0  02:18      0.0565       0.411       1.040
  HS02004802           JUNCTION      0.00    64.20     0  02:19           0       0.407       1.010
  HS02004799           JUNCTION     14.38   162.40     0  02:14      0.0457       0.544       0.420
  HS02004792           JUNCTION     64.06   148.27     0  02:14       0.198       0.499       0.082
  HS02004788           JUNCTION     21.19    86.26     0  02:15       0.111       0.302       0.128
  HS02004785           JUNCTION      0.15    65.39     0  02:14     0.00423       0.193       0.251
  HS02004777           JUNCTION      0.03    65.71     0  02:13    0.000846       0.194       2.749
  HS02004770           JUNCTION     54.27    66.85     0  02:11       0.159       0.194       1.618
  HS02004480           JUNCTION      0.00   191.60     0  02:15           0       0.637       0.117
  HS02004479           JUNCTION      0.00    29.76     0  02:16           0       0.105       0.699
  HS02004478           JUNCTION      0.00   254.09     0  02:16           0        1.03       0.060
  YS02001745           JUNCTION     97.44   182.92     0  04:12        1.01        1.16       0.401
  YS02001748           JUNCTION      0.04   270.00     0  04:03     0.00127        1.19       1.281
  YS02001751           JUNCTION      0.01   318.28     0  04:04     0.00031        1.03       1.777
  YS02001754           JUNCTION      0.26   150.52     0  03:54     0.00733       0.987       2.366
  YS02001762           JUNCTION      0.00   146.08     0  02:51           0        1.11       1.942
  YS02001765           JUNCTION      0.00   145.16     0  02:51           0        1.11       2.230
  YS02001767           JUNCTION      0.54   143.17     0  02:53      0.0151        1.13       3.240
  YS02001770           JUNCTION    124.32   156.83     0  02:42        1.18        1.21       2.673
  YS02001774           JUNCTION      0.00    49.50     0  02:13           0       0.101      33.358
  YS02001779           JUNCTION      0.01    39.61     0  02:48    0.000141      0.0443      48.023
  YS02001882           JUNCTION      0.00     4.75     0  02:05           0     0.00627      39.365
  YS02001884           JUNCTION      0.00    13.70     0  02:05           0      0.0248      25.738
  YS02001759           JUNCTION    121.25   267.41     0  02:51         1.1        2.17       1.064
  YS02001887           JUNCTION    158.68   159.21     0  02:42         1.3        1.31       0.566
  YS02001890           JUNCTION      0.00   158.53     0  02:42           0        1.28       0.633
  YS02001898           JUNCTION      0.00   157.92     0  02:45           0        1.27       0.188
  YS02001901           JUNCTION      0.00   158.51     0  02:45           0        1.27       0.453
  YS02001904           JUNCTION      0.00   157.62     0  02:48           0        1.27       0.421
  YS02001907           JUNCTION      0.00   288.18     0  02:57           0        2.73       0.826
  YS02001910           JUNCTION      0.00   133.33     0  03:03           0        1.47       0.712
  YS02001915           JUNCTION     86.94   131.47     0  02:59       0.865        1.48       0.326
  YS02001918           JUNCTION      0.00    44.60     0  03:03           0       0.615       0.205
  YS02001619           JUNCTION     84.64    94.90     0  03:46       0.854       0.856       1.249
  YS02001629           JUNCTION      0.00   198.30     0  03:45           0       0.793       3.461
  YS02001641           JUNCTION      0.00   182.79     0  03:03           0        1.68       1.256
  YS02001644           JUNCTION     92.63   273.77     0  03:03       0.974        2.63       0.998
  YS02001652           JUNCTION      0.00   177.61     0  02:50           0       0.917       2.404
  YS02001655           JUNCTION      0.15   292.16     0  03:53     0.00434       0.977       2.287
  YS02001920           JUNCTION      2.87    44.40     0  03:02      0.0809       0.617       0.356
  YS02001923           JUNCTION      0.04    41.53     0  03:01     0.00106       0.537       0.063
  YS02001926           JUNCTION      0.05    41.57     0  03:01     0.00147       0.538       0.445
  YS02001929           JUNCTION     41.54    41.54     0  03:01       0.537       0.537       0.062
  YS02001658           JUNCTION      0.00   283.05     0  03:43           0        1.12       1.464
  YS02001661           JUNCTION      0.00   204.02     0  03:47           0        1.09       0.698
  YS02001664           JUNCTION    112.77   112.77     0  02:44       0.954       0.954       0.006
  YS02001622           JUNCTION      0.00   137.76     0  03:47           0       0.859       3.527
  YS02001633           JUNCTION     94.19   184.51     0  02:47           1        1.74       1.853
  YS02001649           JUNCTION      0.00   396.87     0  02:54           0        3.45       1.076
  YS02001757           JUNCTION      0.00   717.76     0  03:01           0        6.48       1.439
  YS02001895           JUNCTION      0.00   158.31     0  02:48           0        1.28       0.308
  YS02001625           JUNCTION      0.00   195.98     0  03:45           0       0.842       4.814
  YS02163301           JUNCTION      0.00    99.02     0  02:36           0       0.765       3.194
  YS02163601           JUNCTION      0.11   183.83     0  02:54      0.0031         1.7       1.793
  YS02164001           JUNCTION      0.00   183.24     0  02:54           0        1.68       1.182
  YS02001647           JUNCTION      0.00   273.82     0  02:58           0        2.59       1.011
  YSB1154              JUNCTION     15.99    15.99     0  02:14      0.0554      0.0567       2.612
  YSB6556              JUNCTION      0.00    15.99     0  02:16           0      0.0577       2.210
  YSB1174              JUNCTION     15.69    15.69     0  02:09      0.0403      0.0413       3.205
  YSB1171              JUNCTION      0.00    29.75     0  02:15           0       0.105       6.436
  YS02006553           JUNCTION      0.00   289.46     0  03:03           0        2.72       0.535
  YS02006561           JUNCTION      0.00   440.87     0  02:57           0        3.85       0.012
  YS02006556           JUNCTION      0.00   290.22     0  03:03           0        2.73       0.387
  YS02006558           JUNCTION    134.62   422.63     0  02:57        1.18        3.88       0.125
  YS02001783           JUNCTION      0.00   420.23     0  02:57           0        3.85       0.044
  YS02001784           JUNCTION      1.06   420.85     0  02:57      0.0299        3.88       0.070
  YS02001786           JUNCTION      0.06   420.61     0  02:56     0.00159        3.88       0.068
  YS02001788           JUNCTION      0.07   420.63     0  02:56       0.002        3.88       0.039
  YS02001790           JUNCTION      0.15   420.77     0  02:56     0.00437        3.88       0.048
  YS02001791           JUNCTION      0.00   420.73     0  02:56           0        3.88       0.018
  YS02001793           JUNCTION      0.00   532.12     0  03:11           0        3.88       0.008
  WS02004139           JUNCTION      0.32   379.57     0  01:10     0.00905        5.76       0.555
  WSC                  OUTFALL       0.00   731.64     0  03:35           0        13.2       0.000
  3                    OUTFALL       0.00   597.65     0  00:00           0        2.73       0.000
  4                    OUTFALL       0.00    93.62     0  04:48           0       0.231       0.000
  5                    OUTFALL       0.00     0.00     0  00:00           0           0       0.000 ltr
  JK-storage           STORAGE       0.00   668.59     0  03:10           0        4.03     -18.676
  CC-storage           STORAGE       0.00   717.90     0  03:01           0        6.39       0.615
  XR-storage           STORAGE     357.32   357.32     0  02:56        7.35        7.95      -0.001
  
  
  **********************
  Node Surcharge Summary
  **********************
  
  Surcharging occurs when water rises above the top of the highest conduit.
  ---------------------------------------------------------------------
                                               Max. Height   Min. Depth
                                   Hours       Above Crown    Below Rim
  Node                 Type      Surcharged         Meters       Meters
  ---------------------------------------------------------------------
  WS02006109           JUNCTION        1.81          0.130        1.690
  WS02006112           JUNCTION        0.12          0.021        1.659
  WS02006232           JUNCTION        1.49          0.061        1.419
  WS02006235           JUNCTION        0.68          0.030        1.260
  WS02006238           JUNCTION        1.02          0.049        1.381
  WS02006242           JUNCTION        0.66          0.042        0.778
  WS02006239           JUNCTION        0.06          0.005        1.285
  WS02006252           JUNCTION        1.61          0.193        0.907
  WS02006256           JUNCTION        0.01          1.050        0.000
  WS02006228           JUNCTION        1.68          0.153        2.047
  YS02001751           JUNCTION        1.43          1.060        0.140
  YS02001754           JUNCTION        4.31          0.913        0.237
  YS02001762           JUNCTION        5.32          0.679        0.471
  YS02001765           JUNCTION        5.28          0.580        0.520
  YS02001767           JUNCTION        5.24          0.592        0.438
  YS02001770           JUNCTION        5.20          0.657        0.263
  YS02001774           JUNCTION        5.31          0.796        0.254
  YS02001779           JUNCTION        4.20          0.558        0.122
  YS02001759           JUNCTION        5.35          0.724        0.486
  YS02001619           JUNCTION        0.36          0.129        0.481
  YS02001629           JUNCTION        0.33          0.061        0.409
  YS02001641           JUNCTION        5.30          0.573        0.527
  YS02001644           JUNCTION        5.30          0.618        0.302
  YS02001652           JUNCTION        4.74          0.924        0.206
  YS02001655           JUNCTION        2.14          1.187        0.013
  YS02001622           JUNCTION        1.04          0.148        0.472
  YS02001633           JUNCTION        5.26          0.515        0.545
  YS02001649           JUNCTION        5.33          0.762        0.288
  YS02001757           JUNCTION        5.43          0.847        0.363
  YS02001625           JUNCTION        5.00          0.382        0.398
  YS02163301           JUNCTION        5.23          0.475        0.555
  YS02163601           JUNCTION        5.34          0.590        0.490
  YS02164001           JUNCTION        5.27          0.555        0.545
  YS02001647           JUNCTION        4.94          0.495        0.405
  YS02001790           JUNCTION        0.72          1.157        0.000
  YS02001791           JUNCTION        0.84          1.920        0.000
  YS02001793           JUNCTION        1.02          1.354        1.246
  
  
  *********************
  Node Flooding Summary
  *********************
  
  Flooding refers to all water that overflows a node, whether it ponds or not.
  --------------------------------------------------------------------------
                                                             Total   Maximum
                                 Maximum   Time of Max       Flood    Ponded
                        Hours       Rate    Occurrence      Volume     Depth
  Node                 Flooded       LPS   days hr:min    10^6 ltr    Meters
  --------------------------------------------------------------------------
  WS02006256              0.01    406.11      0  00:00       0.001     0.000
  YS02001790              0.01    107.48      0  03:14       0.000     0.000
  YS02001791              0.01    205.15      0  03:13       0.000     0.000
  JK-storage              0.54    288.74      0  03:40       0.210     0.000
  XR-storage              2.68    218.94      0  03:40       1.272     0.000
  
  
  **********************
  Storage Volume Summary
  **********************
  
  --------------------------------------------------------------------------------------------------
                         Average     Avg  Evap Exfil       Maximum     Max    Time of Max    Maximum
                          Volume    Pcnt  Pcnt  Pcnt        Volume    Pcnt     Occurrence    Outflow
  Storage Unit           1000 m3    Full  Loss  Loss       1000 m3    Full    days hr:min        LPS
  --------------------------------------------------------------------------------------------------
  JK-storage               0.075      26     0     0         0.291     100       0  03:16     600.00
  CC-storage               1.819      12     0     0         2.577      16       0  05:31     400.00
  XR-storage               0.846      91     0     0         0.926     100       0  03:03     379.90
  
  
  ***********************
  Outfall Loading Summary
  ***********************
  
  -----------------------------------------------------------
                         Flow       Avg       Max       Total
                         Freq      Flow      Flow      Volume
  Outfall Node           Pcnt       LPS       LPS    10^6 ltr
  -----------------------------------------------------------
  WSC                   99.99    531.30    731.64      13.166
  3                     81.79    167.42    597.65       2.734
  4                     25.86     41.69     93.62       0.231
  5                      0.00      0.00      0.00       0.000
  -----------------------------------------------------------
  System                51.91    740.40   1113.62      16.131
  
  
  ********************
  Link Flow Summary
  ********************
  
  -----------------------------------------------------------------------------
                                 Maximum  Time of Max   Maximum    Max/    Max/
                                  |Flow|   Occurrence   |Veloc|    Full    Full
  Link                 Type          LPS  days hr:min     m/sec    Flow   Depth
  -----------------------------------------------------------------------------
  WS02003066WSF200     CONDUIT    505.81     0  02:33      2.77    0.09    0.22
  WS02006287WS02006284 CONDUIT    254.16     0  02:16      1.74    0.12    0.24
  WS02006284WS02006280 CONDUIT    254.26     0  02:17      1.98    0.11    0.22
  WS02006280WS02006229 CONDUIT    254.27     0  02:17      3.19    0.05    0.16
  WS02006229WS02006228 CONDUIT    515.99     0  02:25      1.03    1.71    1.00
  WS02006256WS02006235 CONDUIT    177.52     0  00:01      2.73    1.88    1.00
  WS02006253WS02006251 CONDUIT     54.45     0  02:22      0.53    0.16    0.89
  WS02006252WS02006251 CONDUIT    400.48     0  05:40      3.19    1.47    1.00
  WS02006251WS02006249 CONDUIT    410.13     0  03:00      1.19    1.18    0.87
  WS02006249WS02006248 CONDUIT    354.87     0  03:00      1.15    1.94    0.82
  WS02006248WS02006247 CONDUIT    348.10     0  03:00      1.11    0.76    0.86
  WS02006247WS02006245 CONDUIT    341.69     0  04:41      1.07    2.71    0.90
  WS02006245WS02006243 CONDUIT    335.37     0  03:01      1.09    0.99    0.91
  WS02006243WS02006242 CONDUIT    325.32     0  04:41      0.94    0.70    0.97
  WS02006242WS02006240 CONDUIT    315.64     0  04:41      0.86    1.25    0.99
  WS02006240WS02006239 CONDUIT    311.19     0  05:41      0.85    0.98    1.00
  WS02006239WS02006238 CONDUIT    311.24     0  04:50      0.82    1.00    1.00
  WS02006238WS02006235 CONDUIT    311.27     0  04:50      1.32    0.69    1.00
  WS02006235WS02006234 CONDUIT    389.38     0  04:44      1.04    4.11    0.99
  WS02006234WS02006232 CONDUIT    387.33     0  04:45      1.17    0.78    1.00
  WS02006232WS02006231 CONDUIT    387.28     0  04:45      1.06    0.81    0.94
  WS02006231WS02006230 CONDUIT    385.76     0  04:46      1.34    5.85    0.87
  WS02006230WS02006229 CONDUIT    395.84     0  04:47      1.03    8.81    1.00
  WS02006228WS02006109 CONDUIT    515.99     0  02:25      1.03    2.25    1.00
  WS02006116WS02004401 CONDUIT    515.20     0  02:28      0.75    0.71    0.82
  WS02006115WS02006116 CONDUIT    518.45     0  02:27      0.86    0.67    0.74
  WS02006113WS02006111 CONDUIT    536.32     0  02:25      2.43    0.64    0.45
  WS02006112WS02006115 CONDUIT    524.29     0  02:26      0.74    0.31    0.86
  WS02006111WS02006112 CONDUIT    520.02     0  02:26      1.45    0.25    0.67
  WS02006110WS02006113 CONDUIT    517.27     0  02:25      1.23    0.47    0.78
  WS02006109WS02006110 CONDUIT    517.23     0  02:25      1.03    0.99    1.00
  WS02004411WS02004412 CONDUIT    506.60     0  02:32      0.90    0.72    0.68
  WS02004401WS02004402 CONDUIT    513.86     0  02:28      0.73    0.62    0.84
  WS02004413WS02003067 CONDUIT    505.71     0  02:32      1.07    0.22    0.58
  WS02004412WS02004413 CONDUIT    505.96     0  02:32      0.79    0.34    0.76
  WS02004410WS02004411 CONDUIT    507.77     0  02:31      0.92    0.69    0.67
  WS02004409WS02004410 CONDUIT    509.89     0  02:30      0.96    0.66    0.65
  WS02004407WS02004409 CONDUIT    512.97     0  02:30      1.46    0.18    0.47
  WS02004406WS02004407 CONDUIT    513.05     0  02:29      1.01    0.23    0.62
  WS02004405WS02004406 CONDUIT    513.04     0  02:29      0.67    1.01    0.94
  WS02004404WS02004405 CONDUIT    513.15     0  02:29      0.67    5.03    0.94
  WS02004403WS02004404 CONDUIT    513.05     0  02:29      0.68    0.37    0.91
  WS02004402WS02004403 CONDUIT    513.43     0  02:28      0.71    0.74    0.87
  WS02004139WS02001211 CONDUIT    374.31     0  01:10      0.69    0.47    0.56
  WS02004138WS02004139 CONDUIT    379.25     0  01:10      2.94    0.08    0.42
  WS02003067WS02003066 CONDUIT    505.79     0  02:33      1.17    0.16    0.41
  WS02001213WS02003059 CONDUIT    375.38     0  01:12      0.68    0.62    0.69
  WS02001212WS02001213 CONDUIT    376.84     0  01:11      1.31    0.58    0.40
  WS02001211WS02001212 CONDUIT    377.75     0  01:11      0.77    0.29    0.60
  WS02003072WS02003073 CONDUIT    730.45     0  03:34      1.58    1.58    0.43
  WS02003069WS02003072 CONDUIT    730.83     0  03:33      1.50    0.35    0.45
  WS02003060WS02003069 CONDUIT    731.02     0  03:33      1.76    0.29    0.40
  WS02003059WS02003060 CONDUIT    373.05     0  01:12      0.93    0.24    0.59
  HS02004901HS02004770 CONDUIT     12.91     0  02:13      0.05    0.05    0.35
  HS02004876HS02004881 CONDUIT     43.90     0  02:17      0.67    0.47    0.09
  HS02004870HS02004876 CONDUIT     34.92     0  02:17      0.46    0.02    0.11
  HS02004842HS02004848 CONDUIT      6.44     0  02:29      0.03    0.00    0.28
  HS02004837HS02004842 CONDUIT      6.66     0  02:30      0.41    0.00    0.30
  HS02004830HS02004837 CONDUIT     27.63     0  02:17      0.47    0.03    0.08
  HS02004824HS02004830 CONDUIT     27.78     0  02:17      0.51    0.04    0.08
  HS02004817HS02004824 CONDUIT     46.16     0  02:20      0.17    0.02    0.42
  HS02004770HS02004777 CONDUIT     65.68     0  02:13      0.26    0.12    0.36
  HS02004799HS02004480 CONDUIT    162.16     0  02:15      0.66    0.20    0.35
  HS02004792HS02004799 CONDUIT    148.18     0  02:14      0.76    0.09    0.28
  HS02004788HS02004792 CONDUIT     86.18     0  02:15      0.90    0.06    0.14
  HS02004785HS02004788 CONDUIT     65.30     0  02:15      0.57    0.49    0.16
  HS02004777HS02004785 CONDUIT     65.24     0  02:14      0.32    0.08    0.30
  HS02004480HS02004478 CONDUIT    191.50     0  02:15      1.05    0.81    0.26
  HS02004479HS02004480 CONDUIT     30.02     0  02:17      0.15    0.03    0.34
  HS02004862HS02004870 CONDUIT     25.61     0  02:18      0.51    0.03    0.07
  HS02004848HS02004852 CONDUIT     10.62     0  02:17      0.34    0.01    0.04
  HS02004856HS02004862 CONDUIT     17.50     0  02:17      0.38    0.02    0.07
  HS02004852HS02004856 CONDUIT     10.59     0  02:18      0.15    0.01    0.10
  HS02004802HS02004478 CONDUIT     64.70     0  02:20      0.34    0.06    0.28
  HS02004478WS02006287 CONDUIT    254.11     0  02:16      1.44    0.07    0.20
  HS02004817HS02004807 CONDUIT     47.48     0  02:22      0.13    0.03    0.54
  HS02004807HS02004802 CONDUIT     64.20     0  02:19      0.28    0.12    0.33
  YS02001759YS02001757 CONDUIT    267.31     0  02:51      0.34    0.19    1.00
  YS02001762YS02001759 CONDUIT    146.27     0  02:51      0.19    0.17    1.00
  YS02001765YS02001762 CONDUIT    146.08     0  02:51      0.23    0.14    1.00
  YS02001770YS02001767 CONDUIT    142.63     0  02:53      0.32    0.56    1.00
  YS02001774YS02001770 CONDUIT     49.50     0  02:13      0.14    0.03    1.00
  YS02001779YS02001774 CONDUIT     39.60     0  02:48      0.08    0.02    1.00
  YS02001649YS02001757 CONDUIT    397.91     0  02:54      0.51    0.24    1.00
  YS02001767YS02001765 CONDUIT    145.16     0  02:51      0.26    0.18    1.00
  YS02006561YS02001783 CONDUIT    420.23     0  02:57      1.92    0.22    0.54
  YS02001783YS02001784 CONDUIT    419.79     0  02:57      1.36    0.58    0.80
  YS02001784YS02001785 CONDUIT    420.55     0  02:56      1.45    0.98    0.85
  YS02001788YS02001790 CONDUIT    420.62     0  02:56      2.01    0.31    0.95
  YS02001790YS02001791 CONDUIT    420.73     0  02:56      2.36    0.46    1.00
  YS02001791YS02001793 CONDUIT    532.12     0  03:11      4.80    0.23    1.00
  YS02001910YS02001907 CONDUIT    133.87     0  03:03      0.49    0.08    0.81
  YS02001786YS02001788 CONDUIT    420.56     0  02:56      1.90    0.81    0.86
  YS02001915YS02001910 CONDUIT    133.33     0  03:03      0.45    0.07    0.60
  YS02001918YS02001915 CONDUIT     46.24     0  03:07      0.44    0.03    0.32
  YS02001923YS02001920 CONDUIT     41.53     0  03:02      0.50    0.02    0.16
  YS02001926YS02001923 CONDUIT     41.49     0  03:01      0.55    0.06    0.15
  YS02001929YS02001926 CONDUIT     41.52     0  03:01      0.59    0.02    0.15
  YS02001920YS02001918 CONDUIT     44.60     0  03:03      0.51    0.04    0.19
  YS02001629YS02163301 CONDUIT     99.02     0  02:36      0.13    0.12    1.00
  YS02001619YS02001622 CONDUIT    137.76     0  03:47      0.70    0.20    1.00
  YS02001622YS02001625 CONDUIT    195.98     0  03:45      0.28    0.10    1.00
  YS02001625YS02001629 CONDUIT    198.30     0  03:45      0.27    0.09    1.00
  YS02163301YS02001633 CONDUIT     92.41     0  02:47      0.12    0.09    1.00
  YS02163601YS02164001 CONDUIT    183.24     0  02:54      0.23    0.16    1.00
  YS02164001YS02001641 CONDUIT    182.79     0  03:03      0.23    0.25    1.00
  YS02001641YS02001644 CONDUIT    182.70     0  03:03      0.23    0.59    1.00
  YS02001647YS02001649 CONDUIT    300.53     0  02:50      0.38    0.16    1.00
  YS02006553YS02006556 CONDUIT    290.22     0  03:03      0.39    0.25    0.89
  YS02006556YS02006558 CONDUIT    294.78     0  03:03      0.39    0.23    0.92
  YSB6556YSB1171       CONDUIT     16.29     0  02:18      0.07    0.02    0.61
  YS02001907YS02006553 CONDUIT    289.46     0  03:03      0.32    0.34    1.00
  YS02006558YS02006561 CONDUIT    440.87     0  02:57      2.61    0.97    0.58
  YS02001633YS02163601 CONDUIT    183.72     0  02:54      0.23    0.19    1.00
  YS02001644YS02001647 CONDUIT    273.82     0  02:58      0.35    0.16    1.00
  YS02001745YS02001748 CONDUIT    242.60     0  03:51      1.48    0.09    0.61
  YS02001748YS02001751 CONDUIT    302.49     0  04:04      1.15    0.15    0.95
  YS02001751YS02001754 CONDUIT    150.26     0  03:54      1.01    0.07    1.00
  YS02001754YS02001757 CONDUIT    151.52     0  03:54      0.33    0.06    1.00
  YS02001882YS02001884 CONDUIT      4.75     0  02:05      0.06    0.01    0.54
  YS02001884YS02001887 CONDUIT     13.70     0  02:05      0.06    0.02    0.63
  YS02001890YS02001895 CONDUIT    158.31     0  02:48      0.33    0.07    0.60
  YS02001895YS02001898 CONDUIT    157.92     0  02:45      0.50    0.27    0.46
  YS02001898YS02001901 CONDUIT    158.51     0  02:45      0.37    0.10    0.54
  YS02001901YS02001904 CONDUIT    157.62     0  02:48      0.33    0.24    0.59
  YS02001904YS02001907 CONDUIT    158.10     0  02:48      0.25    0.06    0.75
  YS02001887YS02001890 CONDUIT    158.53     0  02:42      0.28    0.27    0.68
  YS02001652YS02001649 CONDUIT    157.01     0  02:50      0.34    0.08    1.00
  YS02001655YS02001652 CONDUIT    177.61     0  02:50      1.08    0.09    1.00
  YS02001658YS02001655 CONDUIT    265.20     0  03:53      1.33    0.11    0.92
  YS02001661YS02001658 CONDUIT    283.05     0  03:43      1.55    0.11    0.63
  YS02001664YS02001661 CONDUIT    112.77     0  02:44      1.26    0.04    0.32
  YSB1154YSB6556       CONDUIT     15.99     0  02:16      0.19    0.03    0.50
  YSB1174YSB1171       CONDUIT     14.68     0  02:10      0.06    0.02    0.62
  YSB1171HS02004479    CONDUIT     29.76     0  02:16      0.54    0.02    0.48
  HS02004881HS02006253 CONDUIT     49.08     0  02:16      1.82    0.01    0.22
  YS02001793JiankangQianchi CONDUIT    668.59     0  03:10     13.99    0.05    1.00
  YS02001757CaochengTiaoxuchi CONDUIT    717.90     0  03:01      1.43    0.32    0.96
  WSF200WS02003060     CONDUIT    505.65     0  02:33      1.88    0.11    0.30
  1                    CONDUIT    731.64     0  03:35      3.06    0.25    0.34
  2                    CONDUIT     93.62     0  04:48      4.76    0.22    0.32
  3                    CONDUIT    597.65     0  00:00     10.05    0.95    0.86
  4                    CONDUIT      0.00     0  00:00      0.00    0.00    0.00
  CC-Pump-1            PUMP       200.00     0  03:00              1.00
  CC-Pump-2            PUMP       200.00     0  03:20              1.00
  JK-Pump-1            PUMP       300.00     0  00:00              1.00
  JK-Pump-2            PUMP       300.00     0  00:00              1.00
  XR-Pump-1            PUMP        95.00     0  00:00              1.00
  XR-Pump-2            PUMP        95.00     0  00:50              1.00
  XR-Pump-3            PUMP        95.00     0  00:00              1.00
  XR-Pump-4            PUMP        95.00     0  01:50              1.00
  
  
  ***************************
  Flow Classification Summary
  ***************************
  
  -------------------------------------------------------------------------------------
                      Adjusted    ---------- Fraction of Time in Flow Class ---------- 
                       /Actual         Up    Down  Sub   Sup   Up    Down  Norm  Inlet 
  Conduit               Length    Dry  Dry   Dry   Crit  Crit  Crit  Crit  Ltd   Ctrl  
  -------------------------------------------------------------------------------------
  WS02003066WSF200        1.00   0.06  0.01  0.00  0.00  0.93  0.00  0.00  0.67  0.00
  WS02006287WS02006284    1.00   0.03  0.01  0.00  0.67  0.28  0.00  0.00  0.77  0.00
  WS02006284WS02006280    1.00   0.04  0.00  0.00  0.00  0.00  0.00  0.96  0.00  0.00
  WS02006280WS02006229    1.00   0.04  0.00  0.00  0.00  0.00  0.00  0.96  0.00  0.00
  WS02006229WS02006228    1.00   0.00  0.00  0.00  0.98  0.00  0.00  0.02  0.00  0.00
  WS02006256WS02006235    1.00   0.00  0.00  0.00  1.00  0.00  0.00  0.00  0.00  0.00
  WS02006253WS02006251    1.00   0.02  0.01  0.00  0.96  0.00  0.00  0.00  0.00  0.00
  WS02006252WS02006251    1.00   0.08  0.00  0.00  0.00  0.00  0.92  0.00  0.00  0.00
  WS02006251WS02006249    1.00   0.00  0.00  0.00  1.00  0.00  0.00  0.00  0.26  0.00
  WS02006249WS02006248    1.00   0.00  0.02  0.00  0.91  0.00  0.07  0.00  0.00  0.00
  WS02006248WS02006247    1.00   0.02  0.00  0.00  0.97  0.00  0.00  0.01  0.17  0.00
  WS02006247WS02006245    1.00   0.02  0.00  0.00  0.96  0.00  0.00  0.02  0.00  0.00
  WS02006245WS02006243    1.00   0.02  0.00  0.00  0.94  0.00  0.00  0.05  0.02  0.00
  WS02006243WS02006242    1.00   0.01  0.00  0.00  0.99  0.00  0.00  0.00  0.27  0.00
  WS02006242WS02006240    1.00   0.01  0.00  0.00  0.99  0.00  0.00  0.00  0.00  0.00
  WS02006240WS02006239    1.00   0.00  0.00  0.00  0.95  0.00  0.00  0.04  0.02  0.00
  WS02006239WS02006238    1.00   0.00  0.00  0.00  1.00  0.00  0.00  0.00  0.05  0.00
  WS02006238WS02006235    1.00   0.00  0.00  0.00  1.00  0.00  0.00  0.00  0.00  0.00
  WS02006235WS02006234    1.00   0.00  0.00  0.00  0.95  0.00  0.05  0.00  0.00  0.00
  WS02006234WS02006232    1.00   0.00  0.00  0.00  1.00  0.00  0.00  0.00  0.15  0.00
  WS02006232WS02006231    1.00   0.00  0.00  0.00  0.99  0.00  0.01  0.00  0.00  0.00
  WS02006231WS02006230    1.00   0.00  0.00  0.00  0.56  0.00  0.43  0.00  0.00  0.00
  WS02006230WS02006229    1.00   0.00  0.00  0.00  0.98  0.00  0.00  0.02  0.01  0.00
  WS02006228WS02006109    1.00   0.00  0.00  0.00  1.00  0.00  0.00  0.00  0.00  0.00
  WS02006116WS02004401    1.00   0.02  0.00  0.00  0.98  0.00  0.00  0.00  0.00  0.00
  WS02006115WS02006116    1.00   0.02  0.00  0.00  0.97  0.00  0.00  0.01  0.01  0.00
  WS02006113WS02006111    1.00   0.02  0.00  0.00  0.00  0.98  0.00  0.00  0.11  0.00
  WS02006112WS02006115    1.00   0.02  0.00  0.00  0.98  0.00  0.00  0.00  0.00  0.00
  WS02006111WS02006112    1.00   0.02  0.00  0.00  0.98  0.00  0.00  0.00  0.98  0.00
  WS02006110WS02006113    1.00   0.02  0.00  0.00  0.98  0.00  0.00  0.00  0.00  0.00
  WS02006109WS02006110    1.00   0.00  0.01  0.00  0.98  0.00  0.00  0.00  0.00  0.00
  WS02004411WS02004412    1.00   0.05  0.00  0.00  0.95  0.00  0.00  0.00  0.00  0.00
  WS02004401WS02004402    1.00   0.02  0.00  0.00  0.98  0.00  0.00  0.00  0.00  0.00
  WS02004413WS02003067    1.00   0.05  0.01  0.00  0.00  0.00  0.93  0.00  0.00  0.00
  WS02004412WS02004413    1.00   0.05  0.00  0.00  0.95  0.00  0.00  0.00  0.03  0.00
  WS02004410WS02004411    1.00   0.05  0.00  0.00  0.95  0.00  0.00  0.00  0.01  0.00
  WS02004409WS02004410    1.00   0.05  0.00  0.00  0.95  0.00  0.00  0.00  0.00  0.00
  WS02004407WS02004409    1.00   0.05  0.00  0.00  0.95  0.00  0.00  0.00  0.80  0.00
  WS02004406WS02004407    1.00   0.00  0.05  0.00  0.95  0.00  0.00  0.00  0.00  0.00
  WS02004405WS02004406    1.00   0.00  0.00  0.00  1.00  0.00  0.00  0.00  0.02  0.00
  WS02004404WS02004405    1.00   0.00  0.00  0.00  1.00  0.00  0.00  0.00  0.00  0.00
  WS02004403WS02004404    1.00   0.00  0.02  0.00  0.98  0.00  0.00  0.00  0.02  0.00
  WS02004402WS02004403    1.00   0.02  0.00  0.00  0.98  0.00  0.00  0.00  0.00  0.00
  WS02004139WS02001211    1.00   0.00  0.00  0.00  0.99  0.00  0.01  0.00  0.00  0.00
  WS02004138WS02004139    1.00   0.00  0.00  0.00  0.99  0.01  0.00  0.00  1.00  0.00
  WS02003067WS02003066    1.00   0.07  0.00  0.00  0.93  0.00  0.00  0.00  0.00  0.00
  WS02001213WS02003059    1.00   0.00  0.01  0.00  0.99  0.00  0.00  0.00  0.00  0.00
  WS02001212WS02001213    1.00   0.01  0.00  0.00  0.88  0.00  0.11  0.00  0.00  0.00
  WS02001211WS02001212    1.00   0.00  0.01  0.00  0.99  0.00  0.00  0.00  0.00  0.00
  WS02003072WS02003073    1.00   0.00  0.00  0.00  0.00  0.00  0.00  1.00  0.00  0.00
  WS02003069WS02003072    1.00   0.00  0.00  0.00  0.99  0.01  0.00  0.00  0.26  0.00
  WS02003060WS02003069    1.00   0.00  0.00  0.00  0.99  0.01  0.00  0.00  0.13  0.00
  WS02003059WS02003060    1.00   0.00  0.00  0.00  0.99  0.01  0.00  0.00  0.01  0.00
  HS02004901HS02004770    1.00   0.04  0.00  0.00  0.96  0.00  0.00  0.00  0.02  0.00
  HS02004876HS02004881    1.00   0.02  0.00  0.00  0.98  0.00  0.00  0.00  0.00  0.00
  HS02004870HS02004876    1.00   0.01  0.00  0.00  0.99  0.00  0.00  0.00  0.95  0.00
  HS02004842HS02004848    1.00   0.00  0.04  0.00  0.96  0.00  0.00  0.00  0.67  0.00
  HS02004837HS02004842    1.00   0.00  0.00  0.00  0.99  0.01  0.00  0.00  0.11  0.00
  HS02004830HS02004837    1.00   0.00  0.00  0.00  1.00  0.00  0.00  0.00  0.99  0.00
  HS02004824HS02004830    1.00   0.00  0.00  0.00  1.00  0.00  0.00  0.00  0.00  0.00
  HS02004817HS02004824    1.00   0.00  0.00  0.00  1.00  0.00  0.00  0.00  1.00  0.00
  HS02004770HS02004777    1.00   0.00  0.04  0.00  0.96  0.00  0.00  0.00  0.07  0.00
  HS02004799HS02004480    1.00   0.00  0.02  0.00  0.95  0.00  0.03  0.00  0.00  0.00
  HS02004792HS02004799    1.00   0.00  0.00  0.00  0.99  0.01  0.00  0.00  0.98  0.00
  HS02004788HS02004792    1.00   0.00  0.00  0.00  0.98  0.02  0.00  0.00  0.98  0.00
  HS02004785HS02004788    1.00   0.00  0.00  0.00  1.00  0.00  0.00  0.00  0.00  0.00
  HS02004777HS02004785    1.00   0.00  0.00  0.00  1.00  0.00  0.00  0.00  0.20  0.00
  HS02004480HS02004478    1.00   0.04  0.00  0.00  0.72  0.00  0.00  0.24  0.00  0.00
  HS02004479HS02004480    1.00   0.02  0.00  0.00  0.98  0.00  0.00  0.00  0.16  0.00
  HS02004862HS02004870    1.00   0.00  0.00  0.00  1.00  0.00  0.00  0.00  0.06  0.00
  HS02004848HS02004852    1.00   0.04  0.00  0.00  0.96  0.00  0.00  0.00  0.71  0.00
  HS02004856HS02004862    1.00   0.00  0.06  0.00  0.94  0.00  0.00  0.00  0.75  0.00
  HS02004852HS02004856    1.00   0.04  0.01  0.00  0.96  0.00  0.00  0.00  0.83  0.00
  HS02004802HS02004478    1.00   0.04  0.00  0.00  0.96  0.00  0.00  0.00  0.01  0.00
  HS02004478WS02006287    1.00   0.05  0.00  0.00  0.85  0.10  0.00  0.00  0.75  0.00
  HS02004817HS02004807    1.00   0.00  0.04  0.00  0.96  0.00  0.00  0.00  0.00  0.00
  HS02004807HS02004802    1.00   0.04  0.00  0.00  0.96  0.00  0.00  0.00  0.01  0.00
  YS02001759YS02001757    1.00   0.00  0.00  0.00  1.00  0.00  0.00  0.00  0.17  0.00
  YS02001762YS02001759    1.00   0.00  0.00  0.00  1.00  0.00  0.00  0.00  0.04  0.00
  YS02001765YS02001762    1.00   0.00  0.00  0.00  1.00  0.00  0.00  0.00  0.22  0.00
  YS02001770YS02001767    1.00   0.00  0.00  0.00  1.00  0.00  0.00  0.00  0.00  0.00
  YS02001774YS02001770    1.00   0.00  0.04  0.00  0.95  0.00  0.00  0.00  0.06  0.00
  YS02001779YS02001774    1.00   0.00  0.00  0.00  1.00  0.00  0.00  0.00  0.26  0.00
  YS02001649YS02001757    1.00   0.00  0.00  0.00  1.00  0.00  0.00  0.00  0.19  0.00
  YS02001767YS02001765    1.00   0.00  0.00  0.00  1.00  0.00  0.00  0.00  0.01  0.00
  YS02006561YS02001783    1.00   0.06  0.00  0.00  0.13  0.81  0.00  0.00  0.63  0.00
  YS02001783YS02001784    1.00   0.00  0.06  0.00  0.94  0.00  0.00  0.00  0.00  0.00
  YS02001784YS02001785    1.00   0.00  0.00  0.00  1.00  0.00  0.00  0.00  0.25  0.00
  YS02001788YS02001790    1.00   0.00  0.00  0.00  0.24  0.76  0.00  0.00  0.73  0.00
  YS02001790YS02001791    1.00   0.00  0.00  0.00  0.20  0.80  0.00  0.00  0.48  0.00
  YS02001791YS02001793    1.00   0.00  0.00  0.00  0.20  0.80  0.00  0.00  0.01  0.00
  YS02001910YS02001907    1.00   0.00  0.00  0.00  0.98  0.00  0.00  0.02  0.13  0.00
  YS02001786YS02001788    1.00   0.00  0.00  0.00  0.22  0.78  0.00  0.00  0.00  0.00
  YS02001915YS02001910    1.00   0.00  0.00  0.00  1.00  0.00  0.00  0.00  0.24  0.00
  YS02001918YS02001915    1.00   0.00  0.01  0.00  0.99  0.00  0.00  0.00  0.71  0.00
  YS02001923YS02001920    1.00   0.00  0.00  0.00  1.00  0.00  0.00  0.00  1.00  0.00
  YS02001926YS02001923    1.00   0.00  0.03  0.00  0.00  0.00  0.97  0.00  0.00  0.00
  YS02001929YS02001926    1.00   0.00  0.04  0.00  0.96  0.00  0.00  0.00  0.87  0.00
  YS02001920YS02001918    1.00   0.00  0.01  0.00  0.99  0.00  0.00  0.00  0.00  0.00
  YS02001629YS02163301    1.00   0.05  0.00  0.00  0.94  0.00  0.00  0.00  0.00  0.00
  YS02001619YS02001622    1.00   0.04  0.00  0.00  0.96  0.00  0.00  0.00  0.00  0.00
  YS02001622YS02001625    1.00   0.04  0.00  0.00  0.96  0.00  0.00  0.00  0.12  0.00
  YS02001625YS02001629    1.00   0.04  0.02  0.00  0.92  0.00  0.01  0.00  0.00  0.00
  YS02163301YS02001633    1.00   0.00  0.05  0.00  0.95  0.00  0.00  0.00  0.00  0.00
  YS02163601YS02164001    1.00   0.00  0.03  0.00  0.97  0.00  0.00  0.00  0.00  0.00
  YS02164001YS02001641    1.00   0.01  0.02  0.00  0.97  0.00  0.00  0.00  0.07  0.00
  YS02001641YS02001644    1.00   0.00  0.01  0.00  0.99  0.00  0.00  0.00  0.00  0.00
  YS02001647YS02001649    1.00   0.00  0.06  0.00  0.94  0.00  0.00  0.00  0.01  0.00
  YS02006553YS02006556    1.00   0.02  0.00  0.00  0.98  0.00  0.00  0.00  0.03  0.00
  YS02006556YS02006558    1.00   0.00  0.00  0.00  1.00  0.00  0.00  0.00  0.00  0.00
  YSB6556YSB1171          1.00   0.02  0.01  0.00  0.96  0.00  0.00  0.00  0.00  0.00
  YS02001907YS02006553    1.00   0.00  0.01  0.00  0.98  0.00  0.00  0.00  0.00  0.00
  YS02006558YS02006561    1.00   0.06  0.00  0.00  0.00  0.94  0.00  0.00  0.63  0.00
  YS02001633YS02163601    1.00   0.00  0.01  0.00  0.99  0.00  0.00  0.00  0.19  0.00
  YS02001644YS02001647    1.00   0.00  0.06  0.00  0.94  0.00  0.00  0.00  0.00  0.00
  YS02001745YS02001748    1.00   0.00  0.00  0.00  0.88  0.01  0.00  0.10  0.13  0.00
  YS02001748YS02001751    1.00   0.00  0.00  0.00  0.98  0.02  0.00  0.00  0.23  0.00
  YS02001751YS02001754    1.00   0.00  0.00  0.00  0.93  0.00  0.00  0.07  0.01  0.00
  YS02001754YS02001757    1.00   0.00  0.00  0.00  0.99  0.01  0.00  0.00  0.26  0.00
  YS02001882YS02001884    1.00   0.05  0.00  0.00  0.95  0.00  0.00  0.00  0.00  0.00
  YS02001884YS02001887    1.00   0.03  0.01  0.00  0.96  0.00  0.00  0.00  0.00  0.00
  YS02001890YS02001895    1.00   0.00  0.05  0.00  0.94  0.00  0.00  0.00  0.00  0.00
  YS02001895YS02001898    1.00   0.06  0.00  0.00  0.94  0.00  0.01  0.00  0.00  0.00
  YS02001898YS02001901    1.00   0.05  0.00  0.00  0.94  0.00  0.00  0.00  0.02  0.00
  YS02001901YS02001904    1.00   0.05  0.00  0.00  0.95  0.00  0.00  0.00  0.00  0.00
  YS02001904YS02001907    1.00   0.00  0.05  0.00  0.95  0.00  0.00  0.00  0.00  0.00
  YS02001887YS02001890    1.00   0.00  0.00  0.00  0.98  0.00  0.02  0.00  0.00  0.00
  YS02001652YS02001649    1.00   0.00  0.00  0.00  1.00  0.00  0.00  0.00  0.25  0.00
  YS02001655YS02001652    1.00   0.00  0.00  0.00  0.93  0.00  0.00  0.07  0.02  0.00
  YS02001658YS02001655    1.00   0.00  0.05  0.00  0.92  0.03  0.00  0.00  0.09  0.00
  YS02001661YS02001658    1.00   0.05  0.00  0.00  0.88  0.07  0.00  0.00  0.12  0.00
  YS02001664YS02001661    1.00   0.04  0.00  0.00  0.77  0.19  0.00  0.00  0.86  0.00
  YSB1154YSB6556          1.00   0.04  0.00  0.00  0.96  0.00  0.00  0.00  0.02  0.00
  YSB1174YSB1171          1.00   0.02  0.01  0.00  0.97  0.00  0.00  0.00  0.00  0.00
  YSB1171HS02004479       1.00   0.02  0.00  0.00  0.98  0.00  0.00  0.00  0.13  0.00
  HS02004881HS02006253    1.00   0.02  0.00  0.00  0.70  0.03  0.00  0.24  0.55  0.00
  YS02001793JiankangQianchi    1.00   0.00  0.00  0.00  0.36  0.64  0.00  0.00  0.15  0.00
  YS02001757CaochengTiaoxuchi    1.00   0.00  0.08  0.00  0.92  0.00  0.00  0.00  0.00  0.00
  WSF200WS02003060        1.00   0.00  0.06  0.00  0.39  0.55  0.00  0.00  0.26  0.00
  1                       1.00   0.00  0.00  0.00  0.00  1.00  0.00  0.00  0.36  0.00
  2                       1.00   0.74  0.00  0.00  0.00  0.26  0.00  0.00  0.06  0.00
  3                       1.00   0.18  0.00  0.00  0.00  0.82  0.00  0.00  0.11  0.00
  4                       1.00   1.00  0.00  0.00  0.00  0.00  0.00  0.00  0.00  0.00
  
  
  *************************
  Conduit Surcharge Summary
  *************************
  
  ----------------------------------------------------------------------------
                                                           Hours        Hours 
                         --------- Hours Full --------   Above Full   Capacity
  Conduit                Both Ends  Upstream  Dnstream   Normal Flow   Limited
  ----------------------------------------------------------------------------
  WS02006229WS02006228        1.67      1.95      1.67      4.09         1.67
  WS02006256WS02006235        5.67      5.67      6.69      3.23         0.01
  WS02006252WS02006251        0.79      0.79      1.61      1.40         0.01
  WS02006251WS02006249        0.01      0.01      0.01      0.79         0.01
  WS02006249WS02006248        0.01      0.01      0.01      3.80         0.01
  WS02006247WS02006245        0.01      0.01      0.01      4.41         0.01
  WS02006243WS02006242        0.01      0.01      0.66      0.01         0.01
  WS02006242WS02006240        0.01      0.01      1.06      1.67         0.01
  WS02006240WS02006239        0.01      0.01      0.06      0.01         0.01
  WS02006239WS02006238        0.92      0.92      1.02      0.01         0.01
  WS02006238WS02006235        0.89      0.89      1.28      0.01         0.01
  WS02006235WS02006234        0.01      0.01      0.68      5.69         0.01
  WS02006234WS02006232        0.07      0.07      1.49      0.01         0.01
  WS02006232WS02006231        0.01      0.01      1.49      0.01         0.01
  WS02006231WS02006230        0.01      0.01      0.01      5.65         0.01
  WS02006230WS02006229        2.69      3.64      2.69      5.72         2.69
  WS02006228WS02006109        1.81      2.33      1.81      5.11         1.81
  WS02006112WS02006115        0.01      0.01      0.12      0.01         0.01
  WS02006111WS02006112        0.01      0.01      4.35      0.01         0.01
  WS02006110WS02006113        0.01      0.01      2.13      0.01         0.01
  WS02006109WS02006110        0.01      0.01      2.33      0.01         0.01
  WS02004405WS02004406        0.01      0.01      0.01      0.07         0.01
  WS02004404WS02004405        0.01      0.01      0.01      5.65         0.01
  WS02003072WS02003073        0.01      0.01      0.01      4.96         0.01
  YS02001759YS02001757        5.35      5.35      5.43      0.01         0.01
  YS02001762YS02001759        5.32      5.32      5.35      0.01         0.01
  YS02001765YS02001762        5.28      5.28      5.32      0.01         0.01
  YS02001770YS02001767        5.23      5.23      5.24      0.01         0.75
  YS02001774YS02001770        5.20      5.20      5.31      0.01         0.01
  YS02001779YS02001774        4.20      4.20      5.31      0.01         0.01
  YS02001649YS02001757        5.33      5.33      5.43      0.01         0.01
  YS02001767YS02001765        5.24      5.24      5.28      0.01         0.01
  YS02001788YS02001790        0.01      0.01      0.72      0.01         0.01
  YS02001790YS02001791        0.72      0.72      0.84      0.01         0.01
  YS02001791YS02001793        0.84      0.84      1.06      0.01         0.01
  YS02001629YS02163301        5.18      5.18      5.23      0.01         0.01
  YS02001619YS02001622        0.35      0.36      1.03      0.01         0.06
  YS02001622YS02001625        1.03      1.03      5.00      0.01         0.01
  YS02001625YS02001629        0.33      0.33      5.00      0.01         0.01
  YS02163301YS02001633        5.23      5.23      5.28      0.01         0.01
  YS02163601YS02164001        5.27      5.27      5.34      0.01         0.01
  YS02164001YS02001641        5.27      5.27      5.30      0.01         0.01
  YS02001641YS02001644        5.30      5.30      5.30      0.01         0.51
  YS02001647YS02001649        4.94      4.94      5.33      0.01         0.01
  YS02001907YS02006553        0.01      0.01      0.63      0.01         0.01
  YS02001633YS02163601        5.26      5.26      5.34      0.01         0.01
  YS02001644YS02001647        4.94      4.94      5.30      0.01         0.01
  YS02001748YS02001751        0.01      0.01      1.42      0.01         0.01
  YS02001751YS02001754        1.42      1.42      4.31      0.01         0.01
  YS02001754YS02001757        4.91      4.91      5.43      0.01         0.01
  YS02001652YS02001649        4.98      4.98      5.33      0.01         0.01
  YS02001655YS02001652        2.14      2.14      4.74      0.01         0.01
  YS02001658YS02001655        0.01      0.01      2.14      0.01         0.01
  YS02001793JiankangQianchi        1.02      1.02      1.84      0.01         0.01
  YS02001757CaochengTiaoxuchi        0.01      0.01      5.43      0.01         0.01
  3                           0.01      0.01      0.01      0.01         0.01
  
  
  ***************
  Pumping Summary
  ***************
  
  ---------------------------------------------------------------------------------------------------------
                                                  Min       Avg       Max     Total     Power    % Time Off
                        Percent   Number of      Flow      Flow      Flow    Volume     Usage    Pump Curve
  Pump                 Utilized   Start-Ups       LPS       LPS       LPS  10^6 ltr     Kw-hr    Low   High
  ---------------------------------------------------------------------------------------------------------
  CC-Pump-1               56.52           5      0.00    141.90    200.00     2.231      5.61    0.0   10.0
  CC-Pump-2               52.26           7      0.00    129.64    200.00     1.898      4.79    0.0    6.8
  JK-Pump-1               76.60           5      0.00    140.37    300.00     2.570     38.37    0.0    0.0
  JK-Pump-2               80.84           6      0.00    124.95    300.00     2.173     33.74    0.0    0.0
  XR-Pump-1               87.23           6      0.00     69.41     95.00     1.767     13.90    0.0    0.0
  XR-Pump-2               74.46           6      0.00     67.52     95.00     1.425     12.93    0.0    0.0
  XR-Pump-3               76.59           8      0.00     68.93     95.00     1.539     12.98    0.0    0.0
  XR-Pump-4               61.69           7      0.00     59.79     95.00     1.026      9.51    0.0    0.0
  

  Analysis begun on:  Tue Dec 21 11:34:46 2021
  Analysis ended on:  Tue Dec 21 11:34:49 2021
  Total elapsed time: 00:00:03