
  EPA STORM WATER MANAGEMENT MODEL - VERSION 5.1 (Build 5.3.0.dev0)
  --------------------------------------------------------------

  WARNING 04: minimum elevation drop used for Conduit WS02004404WS02004405
  WARNING 03: negative offset ignored for Link YS02001904YS02001907
  
  *********************************************************
  NOTE: The summary statistics displayed in this report are
  based on results found at every computational time step,  
  not just on results from each reporting time step.
  *********************************************************
  
  ****************
  Analysis Options
  ****************
  Flow Units ............... LPS
  Process Models:
    Rainfall/Runoff ........ YES
    RDII ................... NO
    Snowmelt ............... NO
    Groundwater ............ NO
    Flow Routing ........... YES
    Ponding Allowed ........ NO
    Water Quality .......... NO
  Infiltration Method ...... HORTON
  Flow Routing Method ...... DYNWAVE
  Surcharge Method ......... EXTRAN
  Starting Date ............ 08/28/2015 08:00:00
  Ending Date .............. 08/28/2015 15:50:00
  Antecedent Dry Days ...... 8.0
  Report Time Step ......... 00:01:00
  Wet Time Step ............ 00:01:00
  Dry Time Step ............ 00:01:00
  Routing Time Step ........ 5.00 sec
  Variable Time Step ....... YES
  Maximum Trials ........... 8
  Number of Threads ........ 4
  Head Tolerance ........... 0.001500 m
  
  
  **************************        Volume         Depth
  Runoff Quantity Continuity     hectare-m            mm
  **************************     ---------       -------
  Total Precipitation ......         2.605         5.704
  Evaporation Loss .........         0.000         0.000
  Infiltration Loss ........         0.653         1.430
  Surface Runoff ...........         1.076         2.356
  Final Storage ............         0.876         1.919
  Continuity Error (%) .....        -0.018
  
  
  **************************        Volume        Volume
  Flow Routing Continuity        hectare-m      10^6 ltr
  **************************     ---------     ---------
  Dry Weather Inflow .......         0.616         6.165
  Wet Weather Inflow .......         1.075        10.754
  Groundwater Inflow .......         0.000         0.000
  RDII Inflow ..............         0.000         0.000
  External Inflow ..........         0.102         1.024
  External Outflow .........         1.537        15.375
  Flooding Loss ............         0.102         1.022
  Evaporation Loss .........         0.000         0.000
  Exfiltration Loss ........         0.000         0.000
  Initial Stored Volume ....         0.076         0.761
  Final Stored Volume ......         0.386         3.865
  Continuity Error (%) .....        -8.336
  
  
  *************************
  Highest Continuity Errors
  *************************
  Node JK-storage (-46.50%)
  Node HS02004842 (29.22%)
  Node YS02001884 (23.53%)
  Node YS02001774 (11.03%)
  Node YSB1171 (7.25%)
  
  
  ***************************
  Time-Step Critical Elements
  ***************************
  Link WS02006252WS02006251 (53.39%)
  Link 3 (36.64%)
  Link WS02006238WS02006235 (3.15%)
  Link WS02006280WS02006229 (2.18%)
  
  
  ********************************
  Highest Flow Instability Indexes
  ********************************
  Link WS02006113WS02006111 (44)
  Link WS02006111WS02006112 (26)
  Link YS02164001YS02001641 (10)
  Link YS02001641YS02001644 (9)
  Link YS02001629YS02163301 (9)
  
  
  *************************
  Routing Time Step Summary
  *************************
  Minimum Time Step           :     0.44 sec
  Average Time Step           :     0.90 sec
  Maximum Time Step           :     5.00 sec
  Percent in Steady State     :    -0.00
  Average Iterations per Step :     3.22
  Percent Not Converging      :    15.04
  
  
  ***************************
  Subcatchment Runoff Summary
  ***************************
  
  ------------------------------------------------------------------------------------------------------------------------------
                            Total      Total      Total      Total     Imperv       Perv      Total       Total     Peak  Runoff
                           Precip      Runon       Evap      Infil     Runoff     Runoff     Runoff      Runoff   Runoff   Coeff
  Subcatchment                 mm         mm         mm         mm         mm         mm         mm    10^6 ltr      LPS
  ------------------------------------------------------------------------------------------------------------------------------
  sub0                       5.70       0.00       0.00       0.40       4.04       0.00       4.04        0.00     1.40   0.708
  sub1                       5.70       0.00       0.00       0.63       3.82       0.00       3.82        0.03     7.17   0.670
  sub2                       5.70       0.00       0.00       2.11       2.69       0.00       2.69        0.03     6.32   0.471
  sub3                       5.70       0.00       0.00       2.11       2.65       0.00       2.65        0.06    12.95   0.465
  sub4                       5.70       0.00       0.00       0.63       3.68       0.00       3.68        0.08    14.48   0.646
  sub5                       5.70       0.00       0.00       0.40       3.99       0.00       3.99        0.05    12.76   0.700
  sub7                       5.70       0.00       0.00       0.51       3.94       0.00       3.94        0.01     4.53   0.690
  sub8                       5.70       0.00       0.00       0.51       3.93       0.00       3.93        0.03     7.98   0.688
  sub9                       5.70       0.00       0.00       0.51       3.93       0.00       3.93        0.02     5.91   0.688
  sub10                      5.70       0.00       0.00       0.46       3.96       0.00       3.96        0.04    12.75   0.694
  sub11                      5.70       0.00       0.00       0.46       3.97       0.00       3.97        0.05    15.02   0.697
  sub12                      5.70       0.00       0.00       0.74       3.77       0.00       3.77        0.03    12.81   0.662
  sub14                      5.70       0.00       0.00       0.51       3.92       0.00       3.92        0.04    11.54   0.688
  sub15                      5.70       0.00       0.00       1.71       3.01       0.00       3.01        0.05    15.64   0.529
  sub16                      5.70       0.00       0.00       1.88       2.90       0.00       2.90        0.03    11.24   0.509
  sub17                      5.70       0.00       0.00       1.83       2.94       0.00       2.94        0.03     9.07   0.516
  sub22                      5.70       0.00       0.00       2.45       2.46       0.00       2.46        0.16    51.43   0.432
  sub23                      5.70       0.00       0.00       2.11       2.72       0.00       2.72        0.13    43.83   0.478
  sub60                      5.70       0.00       0.00       0.68       2.62       0.00       2.62        0.79    72.79   0.459
  sub61                      5.70       0.00       0.00       0.97       2.81       0.00       2.81        0.87    91.48   0.492
  sub62                      5.70       0.00       0.00       0.46       3.01       0.00       3.01        0.92    93.44   0.528
  sub63                      5.70       0.00       0.00       1.65       2.51       0.00       2.51        0.76    85.46   0.439
  sub64                      5.70       0.00       0.00       0.86       2.50       0.00       2.50        0.76    69.11   0.438
  sub65                      5.70       0.00       0.00       0.74       2.53       0.00       2.53        0.78    70.10   0.444
  sub66                      5.70       0.00       0.00       1.65       2.18       0.00       2.18        0.67    63.40   0.383
  sub67                      5.70       0.00       0.00       0.46       3.32       0.00       3.32        1.02   120.20   0.582
  sub68                      5.70       0.00       0.00       0.80       2.99       0.00       2.99        0.92   101.20   0.524
  sub69                      5.70       0.00       0.00       0.86       3.24       0.00       3.24        0.76   100.83   0.568
  sub70                      5.70       3.31       0.00       3.06       3.95       0.00       3.95        0.90    80.33   0.438
  sub71                      5.70       0.00       0.00       0.46       2.87       0.00       2.87        0.68    65.18   0.504
  sub72                      5.70       0.00       0.00       0.40       2.01       0.00       2.01        0.41    30.52   0.353
  sub73                      5.70       3.84       0.00       3.25       4.00       0.00       4.00        0.94    68.82   0.419
  sub74                      5.70       0.00       0.00       4.28       0.98       0.00       0.98        0.39    56.34   0.171
  
  
  ******************
  Node Depth Summary
  ******************
  
  ---------------------------------------------------------------------------------
                                 Average  Maximum  Maximum  Time of Max    Reported
                                   Depth    Depth      HGL   Occurrence   Max Depth
  Node                 Type       Meters   Meters   Meters  days hr:min      Meters
  ---------------------------------------------------------------------------------
  WS02001211           JUNCTION     0.61     0.75     5.59     0  01:31        0.75
  WS02001212           JUNCTION     0.34     0.45     5.51     0  01:31        0.45
  WS02001213           JUNCTION     0.57     0.66     5.42     0  04:10        0.66
  WS02003069           JUNCTION     0.40     0.48     5.06     0  04:44        0.48
  WS02003072           JUNCTION     0.47     0.55     4.92     0  04:45        0.55
  WS02003073           JUNCTION     0.28     0.33     4.39     0  04:46        0.33
  WS02003060           JUNCTION     0.36     0.42     5.36     0  04:43        0.42
  WS02003066           JUNCTION     0.22     0.27     5.82     0  02:37        0.27
  WS02003059           JUNCTION     0.64     0.71     5.40     0  04:42        0.71
  WS02003067           JUNCTION     0.56     0.65     5.97     0  02:36        0.65
  WS02004401           JUNCTION     0.65     0.76     6.76     0  02:33        0.76
  WS02004402           JUNCTION     0.68     0.79     6.75     0  02:33        0.79
  WS02004403           JUNCTION     0.70     0.81     6.74     0  02:33        0.81
  WS02004404           JUNCTION     0.78     0.89     6.74     0  02:33        0.89
  WS02004406           JUNCTION     0.79     0.89     6.72     0  02:33        0.89
  WS02004409           JUNCTION     0.47     0.58     6.35     0  02:35        0.58
  WS02004410           JUNCTION     0.49     0.60     6.32     0  02:36        0.60
  WS02004411           JUNCTION     0.51     0.61     6.29     0  02:36        0.61
  WS02004412           JUNCTION     0.52     0.62     6.26     0  02:36        0.62
  WS02004413           JUNCTION     0.68     0.79     6.26     0  02:36        0.79
  WS02004405           JUNCTION     0.78     0.88     6.73     0  02:33        0.88
  WS02006109           JUNCTION     0.72     0.86     7.47     0  02:29        0.86
  WS02006110           JUNCTION     0.72     0.84     7.42     0  02:29        0.84
  WS02006111           JUNCTION     0.21     0.26     6.96     0  02:29        0.26
  WS02006112           JUNCTION     0.82     0.94     6.82     0  02:32        0.94
  WS02006113           JUNCTION     0.32     0.40     7.29     0  02:29        0.40
  WS02006115           JUNCTION     0.54     0.65     6.79     0  02:33        0.65
  WS02006116           JUNCTION     0.62     0.74     6.78     0  02:32        0.74
  WS02006230           JUNCTION     0.68     0.85     7.60     0  04:23        0.85
  WS02006231           JUNCTION     0.44     0.59     7.71     0  04:23        0.59
  WS02006232           JUNCTION     0.58     0.74     7.78     0  04:23        0.74
  WS02006234           JUNCTION     0.50     0.69     7.84     0  04:22        0.69
  WS02006235           JUNCTION     0.53     0.73     7.89     0  04:22        0.72
  WS02006238           JUNCTION     0.55     0.76     7.90     0  04:22        0.75
  WS02006240           JUNCTION     0.44     0.68     7.97     0  04:22        0.68
  WS02006242           JUNCTION     0.49     0.76     8.02     0  04:22        0.75
  WS02006243           JUNCTION     0.37     0.64     8.06     0  06:30        0.64
  WS02006245           JUNCTION     0.35     0.62     8.10     0  06:30        0.62
  WS02006247           JUNCTION     0.37     0.63     8.13     0  06:30        0.63
  WS02006248           JUNCTION     0.32     0.57     8.16     0  06:30        0.57
  WS02006249           JUNCTION     0.36     0.59     8.19     0  06:30        0.59
  WS02006239           JUNCTION     0.51     0.73     7.94     0  04:22        0.73
  WS02006251           JUNCTION     0.35     0.61     8.28     0  06:30        0.61
  WS02006252           JUNCTION     0.31     0.59     8.83     0  05:30        0.58
  WS02006253           JUNCTION     0.37     0.64     8.28     0  06:30        0.64
  WS02006256           JUNCTION     1.04     2.35     9.28     0  00:00        1.19
  WS02004138           JUNCTION     0.13     0.19     7.44     0  01:30        0.19
  WS02004407           JUNCTION     0.21     0.26     6.57     0  02:34        0.26
  WS02006228           JUNCTION     0.71     0.87     7.52     0  02:29        0.87
  WS02006229           JUNCTION     0.69     0.85     7.55     0  02:28        0.85
  WS02006280           JUNCTION     0.05     0.14     8.41     0  02:19        0.14
  WS02006284           JUNCTION     0.35     0.48     8.88     0  02:18        0.48
  WS02006287           JUNCTION     0.08     0.21     9.16     0  02:18        0.21
  WSF200               JUNCTION     0.21     0.26     5.50     0  04:52        0.26
  HS02004901           JUNCTION     0.11     0.23    10.05     0  02:16        0.23
  HS02004881           JUNCTION     0.01     0.02     9.05     0  02:18        0.02
  HS02004876           JUNCTION     0.03     0.10     9.13     0  02:17        0.10
  HS02004870           JUNCTION     0.01     0.04     9.33     0  02:18        0.04
  HS02004862           JUNCTION     0.01     0.05     9.43     0  02:19        0.05
  HS02004856           JUNCTION     0.07     0.10     9.53     0  02:19        0.10
  HS02004852           JUNCTION     0.01     0.03     9.54     0  02:20        0.03
  HS02004848           JUNCTION     0.01     0.03     9.63     0  02:18        0.03
  HS02004842           JUNCTION     0.33     0.36     9.63     0  02:18        0.36
  HS02004837           JUNCTION     0.03     0.05     9.63     0  02:18        0.05
  HS02004830           JUNCTION     0.04     0.06     9.53     0  02:18        0.06
  HS02004824           JUNCTION     0.02     0.04     9.44     0  02:21        0.04
  HS02004817           JUNCTION     0.42     0.52     9.37     0  02:19        0.52
  HS02004807           JUNCTION     0.11     0.20     9.37     0  02:19        0.20
  HS02004802           JUNCTION     0.15     0.23     9.36     0  02:19        0.23
  HS02004799           JUNCTION     0.10     0.25     9.46     0  02:17        0.25
  HS02004792           JUNCTION     0.02     0.10     9.62     0  02:16        0.10
  HS02004788           JUNCTION     0.02     0.07     9.97     0  02:17        0.07
  HS02004785           JUNCTION     0.03     0.13    10.03     0  02:17        0.13
  HS02004777           JUNCTION     0.13     0.25    10.05     0  02:16        0.25
  HS02004770           JUNCTION     0.10     0.22    10.05     0  02:16        0.22
  HS02004480           JUNCTION     0.06     0.19     9.44     0  02:17        0.19
  HS02004479           JUNCTION     0.10     0.23     9.44     0  02:17        0.23
  HS02004478           JUNCTION     0.05     0.12     9.35     0  02:18        0.12
  YS02001745           JUNCTION     0.12     0.31     7.82     0  04:12        0.29
  YS02001748           JUNCTION     0.47     0.73     7.81     0  04:10        0.73
  YS02001751           JUNCTION     0.65     0.99     7.87     0  04:11        0.96
  YS02001754           JUNCTION     0.90     1.60     8.21     0  04:47        1.23
  YS02001762           JUNCTION     1.10     1.68     8.08     0  04:25        1.55
  YS02001765           JUNCTION     1.05     1.70     8.15     0  04:25        1.55
  YS02001767           JUNCTION     1.02     1.75     8.24     0  04:25        1.56
  YS02001770           JUNCTION     1.01     1.86     8.36     0  04:25        1.63
  YS02001774           JUNCTION     1.08     1.96     8.38     0  04:25        1.72
  YS02001779           JUNCTION     0.83     1.68     8.37     0  04:25        1.48
  YS02001882           JUNCTION     0.28     0.45     7.16     0  02:54        0.45
  YS02001884           JUNCTION     0.38     0.54     7.16     0  02:54        0.54
  YS02001759           JUNCTION     1.13     1.61     7.97     0  04:25        1.53
  YS02001887           JUNCTION     0.45     0.62     7.16     0  02:54        0.62
  YS02001890           JUNCTION     0.48     0.65     7.16     0  02:54        0.65
  YS02001898           JUNCTION     0.25     0.41     7.14     0  02:55        0.41
  YS02001901           JUNCTION     0.37     0.54     7.14     0  02:55        0.54
  YS02001904           JUNCTION     0.35     0.51     7.14     0  02:55        0.51
  YS02001907           JUNCTION     0.68     0.85     7.14     0  02:55        0.85
  YS02001910           JUNCTION     0.47     0.64     7.14     0  02:55        0.64
  YS02001915           JUNCTION     0.27     0.42     7.14     0  02:55        0.42
  YS02001918           JUNCTION     0.08     0.09     7.16     0  03:03        0.09
  YS02001619           JUNCTION     0.61     0.85     7.78     0  04:20        0.84
  YS02001629           JUNCTION     0.96     1.26     7.80     0  04:22        1.24
  YS02001641           JUNCTION     1.07     1.43     7.87     0  04:21        1.41
  YS02001644           JUNCTION     1.07     1.43     7.86     0  04:21        1.41
  YS02001652           JUNCTION     0.92     1.28     7.88     0  04:17        1.20
  YS02001655           JUNCTION     0.68     1.09     7.94     0  04:17        0.98
  YS02001920           JUNCTION     0.17     0.20     7.21     0  03:02        0.20
  YS02001923           JUNCTION     0.06     0.08     7.34     0  03:02        0.08
  YS02001926           JUNCTION     0.14     0.17     7.62     0  03:01        0.17
  YS02001929           JUNCTION     0.06     0.08     7.78     0  03:01        0.08
  YS02001658           JUNCTION     0.41     0.67     7.81     0  04:18        0.66
  YS02001661           JUNCTION     0.21     0.39     7.80     0  04:08        0.39
  YS02001664           JUNCTION     0.07     0.11     8.04     0  02:46        0.11
  YS02001622           JUNCTION     0.63     0.86     7.77     0  04:23        0.86
  YS02001633           JUNCTION     1.05     1.38     7.83     0  04:21        1.35
  YS02001649           JUNCTION     1.11     1.46     7.85     0  04:34        1.41
  YS02001757           JUNCTION     1.23     1.68     7.94     0  04:47        1.57
  YS02001895           JUNCTION     0.25     0.41     7.15     0  02:54        0.41
  YS02001625           JUNCTION     0.91     1.17     7.78     0  04:17        1.17
  YS02163301           JUNCTION     0.99     1.30     7.82     0  04:22        1.28
  YS02163601           JUNCTION     1.11     1.46     7.86     0  04:21        1.43
  YS02164001           JUNCTION     1.05     1.41     7.87     0  04:21        1.38
  YS02001647           JUNCTION     0.90     1.26     7.87     0  04:34        1.22
  YSB1154              JUNCTION     0.24     0.38     9.44     0  02:17        0.38
  YSB6556              JUNCTION     0.13     0.27     9.44     0  02:17        0.27
  YSB1174              JUNCTION     0.19     0.33     9.44     0  02:17        0.33
  YSB1171              JUNCTION     0.39     0.53     9.44     0  02:17        0.53
  YS02006553           JUNCTION     0.68     0.86     7.14     0  02:55        0.86
  YS02006561           JUNCTION     0.14     0.22     6.88     0  02:55        0.22
  YS02006556           JUNCTION     0.66     0.83     7.14     0  02:55        0.83
  YS02006558           JUNCTION     0.70     0.87     7.14     0  02:55        0.87
  YS02001783           JUNCTION     0.24     0.39     6.53     0  02:56        0.39
  YS02001784           JUNCTION     0.27     0.42     6.49     0  02:56        0.42
  YS02001786           JUNCTION     0.23     0.36     6.39     0  02:56        0.36
  YS02001788           JUNCTION     0.17     0.27     6.24     0  02:57        0.27
  YS02001790           JUNCTION     0.20     0.32     5.97     0  02:57        0.32
  YS02001791           JUNCTION     0.13     0.21     5.68     0  02:56        0.21
  YS02001793           JUNCTION     0.09     0.14     4.97     0  02:54        0.14
  WS02004139           JUNCTION     0.55     0.70     5.61     0  01:30        0.70
  WSC                  OUTFALL      0.28     0.33     1.00     0  04:46        0.33
  3                    OUTFALL      0.08     0.23     6.23     0  00:00        0.19
  4                    OUTFALL      0.01     0.09     7.09     0  06:30        0.09
  5                    OUTFALL      0.00     0.00     5.00     0  00:00        0.00
  JK-storage           STORAGE      0.15     3.00     3.80     0  00:00        2.50
  CC-storage           STORAGE      0.50     0.72     7.72     0  04:15        0.72
  XR-storage           STORAGE      6.79     7.72     5.72     0  03:34        7.72
  
  
  *******************
  Node Inflow Summary
  *******************
  
  -------------------------------------------------------------------------------------------------
                                  Maximum  Maximum                  Lateral       Total        Flow
                                  Lateral    Total  Time of Max      Inflow      Inflow     Balance
                                   Inflow   Inflow   Occurrence      Volume      Volume       Error
  Node                 Type           LPS      LPS  days hr:min    10^6 ltr    10^6 ltr     Percent
  -------------------------------------------------------------------------------------------------
  WS02001211           JUNCTION      7.35   381.63     0  01:30       0.207        5.87       0.606
  WS02001212           JUNCTION      0.00   377.71     0  01:31           0        5.84       0.356
  WS02001213           JUNCTION      0.00   376.80     0  01:31           0        5.82       0.397
  WS02003069           JUNCTION      0.32   669.57     0  04:43     0.00902        12.6       0.237
  WS02003072           JUNCTION      0.00   669.61     0  04:44           0        12.6       0.289
  WS02003073           JUNCTION      1.82   671.59     0  04:45      0.0514        12.6       0.319
  WS02003060           JUNCTION     16.53   669.09     0  04:44       0.466        12.6       0.230
  WS02003066           JUNCTION      0.00   414.92     0  02:36           0        6.42       0.071
  WS02003059           JUNCTION      0.00   375.31     0  01:32           0         5.8       0.642
  WS02003067           JUNCTION      0.00   414.86     0  02:36           0        6.43       0.149
  WS02004401           JUNCTION      0.00   425.88     0  02:31           0        6.68       0.354
  WS02004402           JUNCTION      0.00   423.93     0  02:32           0        6.66       0.331
  WS02004403           JUNCTION      0.00   423.13     0  02:33           0        6.64       0.298
  WS02004404           JUNCTION      0.16   422.94     0  02:33     0.00457        6.62       0.220
  WS02004406           JUNCTION      0.00   422.74     0  02:33           0        6.59       0.537
  WS02004409           JUNCTION      0.00   422.48     0  02:34           0        6.54       0.272
  WS02004410           JUNCTION      0.00   419.89     0  02:34           0        6.53       0.302
  WS02004411           JUNCTION      0.00   417.78     0  02:35           0        6.51       0.305
  WS02004412           JUNCTION      0.00   416.27     0  02:35           0        6.49       0.326
  WS02004413           JUNCTION      0.00   415.25     0  02:36           0        6.46       0.478
  WS02004405           JUNCTION      0.04   422.82     0  02:33     0.00107        6.61       0.332
  WS02006109           JUNCTION      1.23   432.54     0  02:28      0.0347        6.79       0.336
  WS02006110           JUNCTION      0.00   432.56     0  02:28           0        6.77       0.320
  WS02006111           JUNCTION      0.00   442.94     0  02:29           0        6.74       0.079
  WS02006112           JUNCTION      9.07   439.47     0  02:29      0.0252        6.76       0.445
  WS02006113           JUNCTION      0.00   432.42     0  02:29           0        6.75       0.172
  WS02006115           JUNCTION      0.00   434.81     0  02:29           0        6.73       0.348
  WS02006116           JUNCTION      0.00   429.22     0  02:30           0         6.7       0.330
  WS02006230           JUNCTION     10.28   395.32     0  04:22        0.29        5.93       0.257
  WS02006231           JUNCTION      0.00   386.37     0  04:22           0        5.65       0.255
  WS02006232           JUNCTION      0.00   386.52     0  04:22           0        5.67       0.312
  WS02006234           JUNCTION      0.00   388.35     0  04:21           0        5.68       0.183
  WS02006235           JUNCTION      0.00   388.17     0  04:21           0        5.72       0.212
  WS02006238           JUNCTION      0.00   314.46     0  05:40           0         3.6       0.254
  WS02006240           JUNCTION      0.00   318.80     0  06:22           0        3.61       0.442
  WS02006242           JUNCTION      0.00   329.59     0  06:21           0        3.62       0.519
  WS02006243           JUNCTION      0.00   336.94     0  06:21           0        3.62       0.063
  WS02006245           JUNCTION      0.00   343.29     0  07:41           0        3.63       0.386
  WS02006247           JUNCTION      0.00   349.23     0  07:41           0        3.64       0.291
  WS02006248           JUNCTION      0.00   354.68     0  07:41           0        3.65       0.160
  WS02006249           JUNCTION      0.00   400.89     0  05:39           0         3.9       0.447
  WS02006239           JUNCTION      0.00   314.59     0  05:33           0        3.61       0.410
  WS02006251           JUNCTION      0.08   401.37     0  05:38     0.00217        3.94       0.356
  WS02006252           JUNCTION      0.00   400.00     0  05:30           0        3.77       0.014
  WS02006253           JUNCTION      1.40    39.76     0  02:17     0.00327        0.17       5.267
  WS02006256           JUNCTION      0.00   600.00     0  00:00           0        4.72       0.047
  WS02004138           JUNCTION      0.00   379.75     0  01:30           0         5.7       0.088
  WS02004407           JUNCTION      0.00   422.57     0  02:33           0        6.55       0.129
  WS02006228           JUNCTION      0.00   431.49     0  02:28           0        6.78       0.244
  WS02006229           JUNCTION      0.00   431.49     0  02:28           0        6.79       0.189
  WS02006280           JUNCTION      0.00   204.54     0  02:19           0       0.877       0.008
  WS02006284           JUNCTION      0.10   204.53     0  02:18      0.0027       0.878       0.121
  WS02006287           JUNCTION      0.00   204.41     0  02:18           0       0.876       0.083
  WSF200               JUNCTION      0.00   414.90     0  02:37           0        6.42       0.066
  HS02004901           JUNCTION     11.24    11.24     0  02:10      0.0304      0.0305       6.108
  HS02004881           JUNCTION      4.53    38.70     0  02:17      0.0133       0.139       0.105
  HS02004876           JUNCTION      7.17    34.49     0  02:18      0.0254       0.126       0.418
  HS02004870           JUNCTION      7.98    27.47     0  02:18      0.0251       0.101       0.105
  HS02004862           JUNCTION      6.52    20.04     0  02:18      0.0307      0.0763       0.221
  HS02004856           JUNCTION      5.91    13.57     0  02:18      0.0189      0.0471       3.155
  HS02004852           JUNCTION      0.00     8.04     0  02:18           0      0.0282       0.179
  HS02004848           JUNCTION     12.95    12.95     0  02:21      0.0597      0.0597       0.073
  HS02004842           JUNCTION      0.00     5.36     0  02:31           0      0.0445      41.290
  HS02004837           JUNCTION     19.10    23.65     0  02:17       0.223       0.254       0.321
  HS02004830           JUNCTION      0.15    23.78     0  02:18     0.00423       0.245       0.506
  HS02004824           JUNCTION     14.53    38.13     0  02:21      0.0782       0.322       0.168
  HS02004817           JUNCTION      0.60    38.72     0  02:21      0.0169       0.338       5.187
  HS02004807           JUNCTION     15.02    52.36     0  02:20      0.0461       0.367       1.163
  HS02004802           JUNCTION      0.00    52.64     0  02:21           0       0.363       1.131
  HS02004799           JUNCTION     11.54   129.64     0  02:16      0.0373       0.454       0.501
  HS02004792           JUNCTION     51.71   118.38     0  02:16       0.163       0.417       0.098
  HS02004788           JUNCTION     17.31    68.94     0  02:16      0.0989       0.254       0.152
  HS02004785           JUNCTION      0.15    52.04     0  02:16     0.00423       0.158       0.307
  HS02004777           JUNCTION      0.03    52.36     0  02:14    0.000846       0.158       3.391
  HS02004770           JUNCTION     43.83    53.68     0  02:12        0.13       0.159       1.991
  HS02004480           JUNCTION      0.00   152.83     0  02:17           0       0.529       0.137
  HS02004479           JUNCTION      0.00    23.67     0  02:19           0      0.0877       0.838
  HS02004478           JUNCTION      0.00   204.40     0  02:18           0       0.877       0.072
  YS02001745           JUNCTION     72.80   125.25     0  04:11       0.793       0.831       0.107
  YS02001748           JUNCTION      0.04   307.23     0  04:10     0.00127        1.06       0.563
  YS02001751           JUNCTION      0.01   331.79     0  04:11     0.00031        1.03       1.147
  YS02001754           JUNCTION      0.26   131.23     0  04:10     0.00733       0.825       1.338
  YS02001762           JUNCTION      0.00   112.69     0  03:00           0       0.892       2.342
  YS02001765           JUNCTION      0.00   115.28     0  03:01           0       0.892       2.621
  YS02001767           JUNCTION      0.54   138.99     0  03:01      0.0151       0.909       3.696
  YS02001770           JUNCTION     93.59   142.38     0  03:00       0.929        1.03       2.580
  YS02001774           JUNCTION      0.00    61.49     0  06:07           0       0.222      12.395
  YS02001779           JUNCTION      0.01    61.84     0  06:07    0.000141       0.101       8.249
  YS02001882           JUNCTION      0.00     4.09     0  02:08           0     0.00513      47.772
  YS02001884           JUNCTION      0.00    11.65     0  02:08           0      0.0205      30.764
  YS02001759           JUNCTION     91.52   202.78     0  03:00       0.867        1.72       1.320
  YS02001887           JUNCTION    120.65   120.65     0  02:43        1.04        1.05       0.684
  YS02001890           JUNCTION      0.00   119.93     0  02:45           0        1.02       0.768
  YS02001898           JUNCTION      0.00   119.39     0  02:47           0        1.01       0.214
  YS02001901           JUNCTION      0.00   119.26     0  02:49           0        1.01       0.544
  YS02001904           JUNCTION      0.00   118.70     0  02:51           0        1.01       0.507
  YS02001907           JUNCTION      0.00   216.06     0  02:57           0        2.16       1.027
  YS02001910           JUNCTION      0.00    98.85     0  03:01           0        1.16       0.877
  YS02001915           JUNCTION     65.20    98.32     0  03:01       0.679        1.17       0.388
  YS02001918           JUNCTION      0.00    33.38     0  03:02           0       0.488       0.226
  YS02001619           JUNCTION     63.40    68.63     0  04:03       0.669       0.673       0.922
  YS02001629           JUNCTION      0.00   146.99     0  04:01           0       0.655       2.874
  YS02001641           JUNCTION      0.00   150.79     0  03:01           0        1.31       1.583
  YS02001644           JUNCTION     69.15   215.68     0  03:00       0.761        2.05       1.268
  YS02001652           JUNCTION      0.00   128.18     0  04:22           0       0.788       2.007
  YS02001655           JUNCTION      0.15   253.11     0  04:15     0.00434       0.907       1.550
  YS02001920           JUNCTION      2.87    33.40     0  03:02      0.0809        0.49       0.412
  YS02001923           JUNCTION      0.04    30.53     0  03:01     0.00106        0.41       0.072
  YS02001926           JUNCTION      0.05    30.56     0  03:01     0.00147       0.411       0.517
  YS02001929           JUNCTION     30.52    30.52     0  03:01        0.41        0.41       0.070
  YS02001658           JUNCTION      0.00   258.83     0  04:18           0        1.05       0.563
  YS02001661           JUNCTION      0.00   189.37     0  04:08           0       0.919       0.113
  YS02001664           JUNCTION     85.46    85.46     0  02:46       0.758       0.758       0.016
  YS02001622           JUNCTION      0.00    94.42     0  04:05           0       0.709       2.576
  YS02001633           JUNCTION     70.30   156.79     0  03:01       0.783        1.37       2.213
  YS02001649           JUNCTION      0.00   311.26     0  03:02           0        2.74       1.344
  YS02001757           JUNCTION      0.00   530.67     0  03:00           0        5.12       1.820
  YS02001895           JUNCTION      0.00   119.49     0  02:48           0        1.02       0.365
  YS02001625           JUNCTION      0.00   149.08     0  04:01           0       0.726       4.690
  YS02163301           JUNCTION      0.00    93.76     0  03:11           0       0.607       3.737
  YS02163601           JUNCTION      0.11   145.39     0  02:55      0.0031        1.33       2.264
  YS02164001           JUNCTION      0.00   149.11     0  03:00           0        1.31       1.439
  YS02001647           JUNCTION      0.00   215.29     0  03:03           0        2.01       1.028
  YSB1154              JUNCTION     12.76    12.76     0  02:15      0.0452      0.0466       3.195
  YSB6556              JUNCTION      0.00    12.71     0  02:18           0      0.0477       2.682
  YSB1174              JUNCTION     12.81    12.81     0  02:10       0.033       0.034       3.925
  YSB1171              JUNCTION      0.00    23.66     0  02:17           0      0.0872       7.815
  YS02006553           JUNCTION      0.00   216.15     0  03:02           0        2.15       0.667
  YS02006561           JUNCTION      0.00   317.11     0  02:55           0        3.04       0.021
  YS02006556           JUNCTION      0.00   216.46     0  03:02           0        2.15       0.481
  YS02006558           JUNCTION    102.08   317.12     0  02:55       0.944        3.07       0.147
  YS02001783           JUNCTION      0.00   317.10     0  02:55           0        3.04       0.050
  YS02001784           JUNCTION      1.06   318.17     0  02:56      0.0299        3.07       0.082
  YS02001786           JUNCTION      0.06   318.20     0  02:56     0.00159        3.07       0.080
  YS02001788           JUNCTION      0.07   318.27     0  02:56       0.002        3.07       0.046
  YS02001790           JUNCTION      0.15   318.42     0  02:57     0.00437        3.07       0.057
  YS02001791           JUNCTION      0.00   318.41     0  02:57           0        3.07       0.029
  YS02001793           JUNCTION      0.00   318.55     0  02:56           0        3.07       0.011
  WS02004139           JUNCTION      0.32   379.63     0  01:30     0.00905         5.7       0.680
  WSC                  OUTFALL       0.00   671.63     0  04:46           0        12.6       0.000
  3                    OUTFALL       0.00   597.65     0  00:00           0        2.58       0.000
  4                    OUTFALL       0.00    88.30     0  06:30           0       0.227       0.000
  5                    OUTFALL       0.00     0.00     0  00:00           0           0       0.000 ltr
  JK-storage           STORAGE       0.00   322.76     0  02:56           0        3.22     -31.743
  CC-storage           STORAGE       0.00   527.61     0  03:02           0           5       0.519
  XR-storage           STORAGE     318.00   318.00     0  02:55        6.97        7.57      -0.002
  
  
  **********************
  Node Surcharge Summary
  **********************
  
  Surcharging occurs when water rises above the top of the highest conduit.
  ---------------------------------------------------------------------
                                               Max. Height   Min. Depth
                                   Hours       Above Crown    Below Rim
  Node                 Type      Surcharged         Meters       Meters
  ---------------------------------------------------------------------
  WS02006109           JUNCTION        0.92          0.035        1.785
  WS02006232           JUNCTION        1.11          0.037        1.443
  WS02006235           JUNCTION        0.33          0.016        1.274
  WS02006238           JUNCTION        0.85          0.035        1.395
  WS02006242           JUNCTION        0.62          0.026        0.794
  WS02006252           JUNCTION        1.52          0.193        0.907
  WS02006256           JUNCTION        0.01          1.050        0.000
  WS02006228           JUNCTION        0.77          0.038        2.162
  YS02001754           JUNCTION        1.79          0.555        0.595
  YS02001762           JUNCTION        5.06          0.676        0.474
  YS02001765           JUNCTION        4.87          0.704        0.396
  YS02001767           JUNCTION        4.55          0.751        0.279
  YS02001770           JUNCTION        3.68          0.832        0.088
  YS02001774           JUNCTION        5.01          0.961        0.089
  YS02001779           JUNCTION        1.20          0.680        0.000
  YS02001759           JUNCTION        5.13          0.607        0.603
  YS02001641           JUNCTION        4.97          0.431        0.669
  YS02001644           JUNCTION        4.98          0.432        0.488
  YS02001652           JUNCTION        2.33          0.254        0.876
  YS02001655           JUNCTION        0.01          0.086        1.114
  YS02001633           JUNCTION        4.73          0.359        0.701
  YS02001649           JUNCTION        5.08          0.456        0.594
  YS02001757           JUNCTION        5.29          0.681        0.529
  YS02001625           JUNCTION        2.89          0.172        0.608
  YS02163301           JUNCTION        4.01          0.301        0.729
  YS02163601           JUNCTION        5.07          0.459        0.621
  YS02164001           JUNCTION        4.86          0.409        0.691
  YS02001647           JUNCTION        2.78          0.260        0.640
  
  
  *********************
  Node Flooding Summary
  *********************
  
  Flooding refers to all water that overflows a node, whether it ponds or not.
  --------------------------------------------------------------------------
                                                             Total   Maximum
                                 Maximum   Time of Max       Flood    Ponded
                        Hours       Rate    Occurrence      Volume     Depth
  Node                 Flooded       LPS   days hr:min    10^6 ltr    Meters
  --------------------------------------------------------------------------
  WS02006256              0.01    406.11      0  00:00       0.001     0.000
  YS02001779              0.01      3.93      0  04:25       0.000     0.000
  XR-storage              3.06    269.09      0  04:20       1.022     0.000
  
  
  **********************
  Storage Volume Summary
  **********************
  
  --------------------------------------------------------------------------------------------------
                         Average     Avg  Evap Exfil       Maximum     Max    Time of Max    Maximum
                          Volume    Pcnt  Pcnt  Pcnt        Volume    Pcnt     Occurrence    Outflow
  Storage Unit           1000 m3    Full  Loss  Loss       1000 m3    Full    days hr:min        LPS
  --------------------------------------------------------------------------------------------------
  JK-storage               0.007       3     0     0         0.151      52       0  00:00     600.00
  CC-storage               1.392       9     0     0         2.011      13       0  04:15     400.00
  XR-storage               0.815      88     0     0         0.926     100       0  03:34     379.75
  
  
  ***********************
  Outfall Loading Summary
  ***********************
  
  -----------------------------------------------------------
                         Flow       Avg       Max       Total
                         Freq      Flow      Flow      Volume
  Outfall Node           Pcnt       LPS       LPS    10^6 ltr
  -----------------------------------------------------------
  WSC                   99.99    503.36    671.63      12.564
  3                     87.07    154.21    597.65       2.584
  4                     21.99     43.05     88.30       0.227
  5                      0.00      0.00      0.00       0.000
  -----------------------------------------------------------
  System                52.26    700.62   1001.01      15.374
  
  
  ********************
  Link Flow Summary
  ********************
  
  -----------------------------------------------------------------------------
                                 Maximum  Time of Max   Maximum    Max/    Max/
                                  |Flow|   Occurrence   |Veloc|    Full    Full
  Link                 Type          LPS  days hr:min     m/sec    Flow   Depth
  -----------------------------------------------------------------------------
  WS02003066WSF200     CONDUIT    414.90     0  02:37      2.61    0.07    0.20
  WS02006287WS02006284 CONDUIT    204.43     0  02:18      1.62    0.09    0.22
  WS02006284WS02006280 CONDUIT    204.54     0  02:19      1.86    0.09    0.20
  WS02006280WS02006229 CONDUIT    204.54     0  02:19      2.99    0.04    0.14
  WS02006229WS02006228 CONDUIT    431.49     0  02:28      0.86    1.43    1.00
  WS02006256WS02006235 CONDUIT    177.52     0  00:01      2.73    1.88    1.00
  WS02006253WS02006251 CONDUIT     44.44     0  02:24      0.49    0.13    0.89
  WS02006252WS02006251 CONDUIT    400.55     0  05:38      3.19    1.47    1.00
  WS02006251WS02006249 CONDUIT    400.89     0  05:39      1.17    1.16    0.86
  WS02006249WS02006248 CONDUIT    354.68     0  07:41      1.16    1.94    0.82
  WS02006248WS02006247 CONDUIT    349.23     0  07:41      1.12    0.76    0.85
  WS02006247WS02006245 CONDUIT    343.29     0  07:41      1.08    2.72    0.89
  WS02006245WS02006243 CONDUIT    336.94     0  06:21      1.09    1.00    0.89
  WS02006243WS02006242 CONDUIT    329.59     0  06:21      0.95    0.70    0.96
  WS02006242WS02006240 CONDUIT    318.80     0  06:22      0.88    1.27    0.98
  WS02006240WS02006239 CONDUIT    314.59     0  05:33      0.87    0.99    0.98
  WS02006239WS02006238 CONDUIT    314.46     0  05:40      0.84    1.01    1.00
  WS02006238WS02006235 CONDUIT    314.46     0  05:40      1.32    0.70    1.00
  WS02006235WS02006234 CONDUIT    388.35     0  04:21      1.04    4.10    0.98
  WS02006234WS02006232 CONDUIT    386.52     0  04:22      1.17    0.78    0.99
  WS02006232WS02006231 CONDUIT    386.37     0  04:22      1.05    0.81    0.91
  WS02006231WS02006230 CONDUIT    385.04     0  04:22      1.35    5.84    0.76
  WS02006230WS02006229 CONDUIT    394.94     0  04:23      1.03    8.79    1.00
  WS02006228WS02006109 CONDUIT    431.31     0  02:28      0.86    1.88    1.00
  WS02006116WS02004401 CONDUIT    425.88     0  02:31      0.69    0.59    0.75
  WS02006115WS02006116 CONDUIT    429.22     0  02:30      0.80    0.55    0.66
  WS02006113WS02006111 CONDUIT    442.94     0  02:29      2.28    0.53    0.41
  WS02006112WS02006115 CONDUIT    434.81     0  02:29      0.66    0.26    0.79
  WS02006111WS02006112 CONDUIT    433.78     0  02:29      1.25    0.21    0.65
  WS02006110WS02006113 CONDUIT    432.42     0  02:29      1.07    0.39    0.75
  WS02006109WS02006110 CONDUIT    432.56     0  02:28      0.87    0.83    0.96
  WS02004411WS02004412 CONDUIT    416.27     0  02:35      0.82    0.59    0.62
  WS02004401WS02004402 CONDUIT    423.93     0  02:32      0.65    0.51    0.78
  WS02004413WS02003067 CONDUIT    414.86     0  02:36      0.97    0.18    0.54
  WS02004412WS02004413 CONDUIT    415.25     0  02:36      0.70    0.28    0.71
  WS02004410WS02004411 CONDUIT    417.78     0  02:35      0.85    0.57    0.60
  WS02004409WS02004410 CONDUIT    419.89     0  02:34      0.89    0.54    0.59
  WS02004407WS02004409 CONDUIT    422.48     0  02:34      1.38    0.15    0.42
  WS02004406WS02004407 CONDUIT    422.57     0  02:33      0.90    0.19    0.58
  WS02004405WS02004406 CONDUIT    422.74     0  02:33      0.57    0.83    0.89
  WS02004404WS02004405 CONDUIT    422.78     0  02:33      0.58    4.14    0.88
  WS02004403WS02004404 CONDUIT    422.78     0  02:33      0.59    0.31    0.85
  WS02004402WS02004403 CONDUIT    423.13     0  02:33      0.63    0.61    0.80
  WS02004139WS02001211 CONDUIT    374.28     0  01:30      0.80    0.47    0.56
  WS02004138WS02004139 CONDUIT    379.31     0  01:30      3.34    0.08    0.42
  WS02003067WS02003066 CONDUIT    414.92     0  02:36      1.04    0.13    0.38
  WS02001213WS02003059 CONDUIT    375.31     0  01:32      0.80    0.62    0.67
  WS02001212WS02001213 CONDUIT    376.80     0  01:31      1.31    0.58    0.39
  WS02001211WS02001212 CONDUIT    377.71     0  01:31      0.77    0.29    0.60
  WS02003072WS02003073 CONDUIT    669.77     0  04:45      1.53    1.45    0.41
  WS02003069WS02003072 CONDUIT    669.61     0  04:44      1.45    0.32    0.43
  WS02003060WS02003069 CONDUIT    669.25     0  04:43      1.72    0.26    0.38
  WS02003059WS02003060 CONDUIT    372.99     0  01:32      0.93    0.24    0.57
  HS02004901HS02004770 CONDUIT     10.25     0  02:15      0.05    0.04    0.32
  HS02004876HS02004881 CONDUIT     34.56     0  02:18      0.56    0.37    0.09
  HS02004870HS02004876 CONDUIT     27.45     0  02:18      0.39    0.02    0.10
  HS02004842HS02004848 CONDUIT      5.36     0  02:31      0.03    0.00    0.27
  HS02004837HS02004842 CONDUIT      5.55     0  02:31      0.41    0.00    0.29
  HS02004830HS02004837 CONDUIT     23.63     0  02:18      0.44    0.02    0.08
  HS02004824HS02004830 CONDUIT     23.78     0  02:19      0.48    0.03    0.07
  HS02004817HS02004824 CONDUIT     38.12     0  02:21      0.17    0.02    0.40
  HS02004770HS02004777 CONDUIT     52.33     0  02:14      0.23    0.10    0.33
  HS02004799HS02004480 CONDUIT    129.44     0  02:16      0.59    0.16    0.31
  HS02004792HS02004799 CONDUIT    118.31     0  02:16      0.68    0.07    0.25
  HS02004788HS02004792 CONDUIT     68.88     0  02:17      0.83    0.05    0.12
  HS02004785HS02004788 CONDUIT     51.95     0  02:17      0.51    0.39    0.14
  HS02004777HS02004785 CONDUIT     51.89     0  02:16      0.27    0.06    0.27
  HS02004480HS02004478 CONDUIT    152.78     0  02:17      0.96    0.64    0.23
  HS02004479HS02004480 CONDUIT     23.90     0  02:20      0.16    0.02    0.31
  HS02004862HS02004870 CONDUIT     20.00     0  02:19      0.47    0.02    0.06
  HS02004848HS02004852 CONDUIT      8.04     0  02:18      0.31    0.01    0.04
  HS02004856HS02004862 CONDUIT     13.54     0  02:19      0.34    0.01    0.06
  HS02004852HS02004856 CONDUIT      8.00     0  02:20      0.12    0.01    0.09
  HS02004802HS02004478 CONDUIT     53.03     0  02:22      0.30    0.05    0.25
  HS02004478WS02006287 CONDUIT    204.41     0  02:18      1.31    0.06    0.17
  HS02004817HS02004807 CONDUIT     39.27     0  02:23      0.11    0.02    0.51
  HS02004807HS02004802 CONDUIT     52.64     0  02:21      0.25    0.10    0.30
  YS02001759YS02001757 CONDUIT    205.12     0  02:59      0.26    0.15    1.00
  YS02001762YS02001759 CONDUIT    112.24     0  03:00      0.17    0.13    1.00
  YS02001765YS02001762 CONDUIT    112.69     0  03:00      0.23    0.11    1.00
  YS02001770YS02001767 CONDUIT    138.46     0  03:01      0.34    0.55    1.00
  YS02001774YS02001770 CONDUIT     61.49     0  06:07      0.14    0.04    1.00
  YS02001779YS02001774 CONDUIT     61.84     0  06:07      0.08    0.03    1.00
  YS02001649YS02001757 CONDUIT    312.72     0  03:02      0.40    0.19    1.00
  YS02001767YS02001765 CONDUIT    115.28     0  03:01      0.26    0.14    1.00
  YS02006561YS02001783 CONDUIT    317.10     0  02:55      1.79    0.16    0.38
  YS02001783YS02001784 CONDUIT    317.11     0  02:56      1.24    0.44    0.51
  YS02001784YS02001785 CONDUIT    318.15     0  02:56      1.32    0.74    0.48
  YS02001788YS02001790 CONDUIT    318.26     0  02:57      1.88    0.23    0.37
  YS02001790YS02001791 CONDUIT    318.41     0  02:57      2.17    0.35    0.34
  YS02001791YS02001793 CONDUIT    318.55     0  02:56      4.41    0.14    0.22
  YS02001910YS02001907 CONDUIT     98.94     0  03:01      0.49    0.06    0.74
  YS02001786YS02001788 CONDUIT    318.20     0  02:56      1.75    0.61    0.39
  YS02001915YS02001910 CONDUIT     98.85     0  03:01      0.44    0.05    0.53
  YS02001918YS02001915 CONDUIT     33.36     0  03:03      0.44    0.02    0.26
  YS02001923YS02001920 CONDUIT     30.53     0  03:02      0.45    0.01    0.14
  YS02001926YS02001923 CONDUIT     30.49     0  03:01      0.49    0.04    0.13
  YS02001929YS02001926 CONDUIT     30.51     0  03:01      0.52    0.01    0.13
  YS02001920YS02001918 CONDUIT     33.38     0  03:02      0.46    0.03    0.15
  YS02001629YS02163301 CONDUIT     93.76     0  03:11      0.12    0.12    1.00
  YS02001619YS02001622 CONDUIT     94.42     0  04:05      0.66    0.14    0.85
  YS02001622YS02001625 CONDUIT    149.08     0  04:01      0.25    0.08    0.93
  YS02001625YS02001629 CONDUIT    146.99     0  04:01      0.25    0.07    0.94
  YS02163301YS02001633 CONDUIT     86.66     0  03:01      0.11    0.08    1.00
  YS02163601YS02164001 CONDUIT    149.11     0  03:00      0.19    0.13    1.00
  YS02164001YS02001641 CONDUIT    150.79     0  03:01      0.19    0.21    1.00
  YS02001641YS02001644 CONDUIT    146.55     0  03:00      0.19    0.47    1.00
  YS02001647YS02001649 CONDUIT    230.17     0  03:19      0.30    0.12    1.00
  YS02006553YS02006556 CONDUIT    216.46     0  03:02      0.31    0.19    0.82
  YS02006556YS02006558 CONDUIT    216.69     0  03:02      0.31    0.17    0.85
  YSB6556YSB1171       CONDUIT     12.91     0  02:19      0.06    0.01    0.57
  YS02001907YS02006553 CONDUIT    216.15     0  03:02      0.26    0.25    0.93
  YS02006558YS02006561 CONDUIT    317.11     0  02:55      2.29    0.70    0.49
  YS02001633YS02163601 CONDUIT    145.28     0  02:55      0.19    0.15    1.00
  YS02001644YS02001647 CONDUIT    215.29     0  03:03      0.28    0.13    1.00
  YS02001745YS02001748 CONDUIT    196.37     0  04:12      1.40    0.08    0.44
  YS02001748YS02001751 CONDUIT    302.21     0  04:10      1.09    0.15    0.79
  YS02001751YS02001754 CONDUIT    130.97     0  04:10      0.97    0.06    1.00
  YS02001754YS02001757 CONDUIT    144.11     0  04:10      0.33    0.06    1.00
  YS02001882YS02001884 CONDUIT      4.09     0  02:08      0.06    0.00    0.47
  YS02001884YS02001887 CONDUIT     11.65     0  02:08      0.06    0.02    0.56
  YS02001890YS02001895 CONDUIT    119.49     0  02:48      0.29    0.06    0.53
  YS02001895YS02001898 CONDUIT    119.39     0  02:47      0.49    0.21    0.39
  YS02001898YS02001901 CONDUIT    119.26     0  02:49      0.33    0.08    0.47
  YS02001901YS02001904 CONDUIT    118.70     0  02:51      0.29    0.18    0.52
  YS02001904YS02001907 CONDUIT    118.89     0  02:52      0.21    0.04    0.68
  YS02001887YS02001890 CONDUIT    119.93     0  02:45      0.24    0.21    0.61
  YS02001652YS02001649 CONDUIT    134.58     0  04:22      0.33    0.07    1.00
  YS02001655YS02001652 CONDUIT    128.18     0  04:22      1.05    0.06    1.00
  YS02001658YS02001655 CONDUIT    238.08     0  04:18      1.26    0.10    0.80
  YS02001661YS02001658 CONDUIT    221.87     0  04:23      1.45    0.09    0.45
  YS02001664YS02001661 CONDUIT     85.46     0  02:46      1.11    0.03    0.24
  YSB1154YSB6556       CONDUIT     12.71     0  02:18      0.19    0.02    0.46
  YSB1174YSB1171       CONDUIT     11.85     0  02:11      0.06    0.02    0.58
  YSB1171HS02004479    CONDUIT     23.67     0  02:19      0.54    0.02    0.45
  HS02004881HS02006253 CONDUIT     38.69     0  02:18      1.66    0.01    0.22
  YS02001793JiankangQianchi CONDUIT    322.76     0  02:56     13.24    0.03    0.55
  YS02001757CaochengTiaoxuchi CONDUIT    527.61     0  03:02      1.01    0.23    0.86
  WSF200WS02003060     CONDUIT    415.28     0  02:37      1.77    0.09    0.28
  1                    CONDUIT    671.63     0  04:46      2.98    0.23    0.33
  2                    CONDUIT     88.30     0  06:30      4.68    0.21    0.31
  3                    CONDUIT    597.65     0  00:00     10.05    0.95    0.86
  4                    CONDUIT      0.00     0  00:00      0.00    0.00    0.00
  CC-Pump-1            PUMP       200.00     0  04:10              1.00
  CC-Pump-2            PUMP       200.00     0  04:20              1.00
  JK-Pump-1            PUMP       300.00     0  00:00              1.00
  JK-Pump-2            PUMP       300.00     0  00:00              1.00
  XR-Pump-1            PUMP        95.00     0  00:20              1.00
  XR-Pump-2            PUMP        95.00     0  00:00              1.00
  XR-Pump-3            PUMP        95.00     0  00:00              1.00
  XR-Pump-4            PUMP        95.00     0  00:00              1.00
  
  
  ***************************
  Flow Classification Summary
  ***************************
  
  -------------------------------------------------------------------------------------
                      Adjusted    ---------- Fraction of Time in Flow Class ---------- 
                       /Actual         Up    Down  Sub   Sup   Up    Down  Norm  Inlet 
  Conduit               Length    Dry  Dry   Dry   Crit  Crit  Crit  Crit  Ltd   Ctrl  
  -------------------------------------------------------------------------------------
  WS02003066WSF200        1.00   0.05  0.03  0.00  0.00  0.93  0.00  0.00  0.70  0.00
  WS02006287WS02006284    1.00   0.03  0.02  0.00  0.70  0.25  0.00  0.00  0.77  0.00
  WS02006284WS02006280    1.00   0.04  0.00  0.00  0.00  0.00  0.00  0.96  0.00  0.00
  WS02006280WS02006229    1.00   0.04  0.00  0.00  0.00  0.00  0.00  0.96  0.00  0.00
  WS02006229WS02006228    1.00   0.00  0.00  0.00  0.98  0.00  0.00  0.02  0.00  0.00
  WS02006256WS02006235    1.00   0.00  0.00  0.00  1.00  0.00  0.00  0.00  0.00  0.00
  WS02006253WS02006251    1.00   0.02  0.01  0.00  0.96  0.00  0.00  0.00  0.00  0.00
  WS02006252WS02006251    1.00   0.08  0.00  0.00  0.00  0.00  0.92  0.00  0.00  0.00
  WS02006251WS02006249    1.00   0.00  0.00  0.00  1.00  0.00  0.00  0.00  0.35  0.00
  WS02006249WS02006248    1.00   0.00  0.02  0.00  0.78  0.00  0.20  0.00  0.00  0.00
  WS02006248WS02006247    1.00   0.02  0.00  0.00  0.97  0.00  0.00  0.01  0.26  0.00
  WS02006247WS02006245    1.00   0.02  0.00  0.00  0.96  0.00  0.00  0.02  0.00  0.00
  WS02006245WS02006243    1.00   0.02  0.00  0.00  0.94  0.00  0.00  0.05  0.02  0.00
  WS02006243WS02006242    1.00   0.01  0.00  0.00  0.99  0.00  0.00  0.00  0.28  0.00
  WS02006242WS02006240    1.00   0.01  0.00  0.00  0.99  0.00  0.00  0.00  0.00  0.00
  WS02006240WS02006239    1.00   0.00  0.00  0.00  0.95  0.00  0.00  0.05  0.02  0.00
  WS02006239WS02006238    1.00   0.00  0.00  0.00  1.00  0.00  0.00  0.00  0.02  0.00
  WS02006238WS02006235    1.00   0.00  0.00  0.00  1.00  0.00  0.00  0.00  0.00  0.00
  WS02006235WS02006234    1.00   0.00  0.00  0.00  0.95  0.00  0.05  0.00  0.00  0.00
  WS02006234WS02006232    1.00   0.00  0.00  0.00  1.00  0.00  0.00  0.00  0.08  0.00
  WS02006232WS02006231    1.00   0.00  0.00  0.00  0.99  0.00  0.01  0.00  0.00  0.00
  WS02006231WS02006230    1.00   0.00  0.00  0.00  0.54  0.00  0.46  0.00  0.00  0.00
  WS02006230WS02006229    1.00   0.00  0.00  0.00  0.98  0.00  0.00  0.02  0.01  0.00
  WS02006228WS02006109    1.00   0.00  0.00  0.00  1.00  0.00  0.00  0.00  0.00  0.00
  WS02006116WS02004401    1.00   0.02  0.00  0.00  0.98  0.00  0.00  0.00  0.00  0.00
  WS02006115WS02006116    1.00   0.02  0.00  0.00  0.97  0.00  0.00  0.01  0.01  0.00
  WS02006113WS02006111    1.00   0.02  0.00  0.00  0.00  0.98  0.00  0.00  0.12  0.00
  WS02006112WS02006115    1.00   0.02  0.00  0.00  0.98  0.00  0.00  0.00  0.00  0.00
  WS02006111WS02006112    1.00   0.02  0.00  0.00  0.98  0.00  0.00  0.00  0.98  0.00
  WS02006110WS02006113    1.00   0.02  0.00  0.00  0.98  0.00  0.00  0.00  0.00  0.00
  WS02006109WS02006110    1.00   0.00  0.02  0.00  0.98  0.00  0.00  0.00  0.00  0.00
  WS02004411WS02004412    1.00   0.05  0.00  0.00  0.95  0.00  0.00  0.00  0.00  0.00
  WS02004401WS02004402    1.00   0.02  0.00  0.00  0.98  0.00  0.00  0.00  0.00  0.00
  WS02004413WS02003067    1.00   0.05  0.01  0.00  0.00  0.00  0.93  0.00  0.00  0.00
  WS02004412WS02004413    1.00   0.05  0.00  0.00  0.95  0.00  0.00  0.00  0.03  0.00
  WS02004410WS02004411    1.00   0.05  0.00  0.00  0.95  0.00  0.00  0.00  0.01  0.00
  WS02004409WS02004410    1.00   0.05  0.00  0.00  0.95  0.00  0.00  0.00  0.00  0.00
  WS02004407WS02004409    1.00   0.05  0.00  0.00  0.95  0.00  0.00  0.00  0.80  0.00
  WS02004406WS02004407    1.00   0.00  0.05  0.00  0.95  0.00  0.00  0.00  0.00  0.00
  WS02004405WS02004406    1.00   0.00  0.00  0.00  1.00  0.00  0.00  0.00  0.02  0.00
  WS02004404WS02004405    1.00   0.00  0.00  0.00  1.00  0.00  0.00  0.00  0.00  0.00
  WS02004403WS02004404    1.00   0.00  0.02  0.00  0.98  0.00  0.00  0.00  0.02  0.00
  WS02004402WS02004403    1.00   0.02  0.00  0.00  0.98  0.00  0.00  0.00  0.00  0.00
  WS02004139WS02001211    1.00   0.00  0.00  0.00  0.99  0.00  0.01  0.00  0.00  0.00
  WS02004138WS02004139    1.00   0.00  0.00  0.00  0.99  0.01  0.00  0.00  1.00  0.00
  WS02003067WS02003066    1.00   0.07  0.00  0.00  0.93  0.00  0.00  0.00  0.00  0.00
  WS02001213WS02003059    1.00   0.00  0.00  0.00  0.99  0.00  0.00  0.00  0.00  0.00
  WS02001212WS02001213    1.00   0.01  0.00  0.00  0.81  0.00  0.18  0.00  0.00  0.00
  WS02001211WS02001212    1.00   0.00  0.01  0.00  0.99  0.00  0.00  0.00  0.00  0.00
  WS02003072WS02003073    1.00   0.00  0.00  0.00  0.00  0.00  0.00  1.00  0.00  0.00
  WS02003069WS02003072    1.00   0.00  0.00  0.00  0.99  0.01  0.00  0.00  0.29  0.00
  WS02003060WS02003069    1.00   0.00  0.00  0.00  0.98  0.02  0.00  0.00  0.14  0.00
  WS02003059WS02003060    1.00   0.00  0.00  0.00  0.99  0.01  0.00  0.00  0.01  0.00
  HS02004901HS02004770    1.00   0.04  0.00  0.00  0.96  0.00  0.00  0.00  0.03  0.00
  HS02004876HS02004881    1.00   0.02  0.00  0.00  0.98  0.00  0.00  0.00  0.00  0.00
  HS02004870HS02004876    1.00   0.01  0.00  0.00  0.99  0.00  0.00  0.00  0.95  0.00
  HS02004842HS02004848    1.00   0.00  0.04  0.00  0.96  0.00  0.00  0.00  0.69  0.00
  HS02004837HS02004842    1.00   0.00  0.00  0.00  0.99  0.01  0.00  0.00  0.11  0.00
  HS02004830HS02004837    1.00   0.00  0.00  0.00  1.00  0.00  0.00  0.00  0.99  0.00
  HS02004824HS02004830    1.00   0.00  0.00  0.00  1.00  0.00  0.00  0.00  0.00  0.00
  HS02004817HS02004824    1.00   0.00  0.00  0.00  1.00  0.00  0.00  0.00  1.00  0.00
  HS02004770HS02004777    1.00   0.00  0.04  0.00  0.96  0.00  0.00  0.00  0.07  0.00
  HS02004799HS02004480    1.00   0.00  0.02  0.00  0.95  0.00  0.03  0.00  0.00  0.00
  HS02004792HS02004799    1.00   0.00  0.00  0.00  0.99  0.01  0.00  0.00  0.98  0.00
  HS02004788HS02004792    1.00   0.00  0.00  0.00  0.98  0.02  0.00  0.00  0.98  0.00
  HS02004785HS02004788    1.00   0.00  0.00  0.00  1.00  0.00  0.00  0.00  0.00  0.00
  HS02004777HS02004785    1.00   0.00  0.00  0.00  1.00  0.00  0.00  0.00  0.21  0.00
  HS02004480HS02004478    1.00   0.04  0.00  0.00  0.74  0.00  0.00  0.22  0.00  0.00
  HS02004479HS02004480    1.00   0.02  0.00  0.00  0.98  0.00  0.00  0.00  0.16  0.00
  HS02004862HS02004870    1.00   0.00  0.00  0.00  1.00  0.00  0.00  0.00  0.05  0.00
  HS02004848HS02004852    1.00   0.04  0.00  0.00  0.96  0.00  0.00  0.00  0.71  0.00
  HS02004856HS02004862    1.00   0.00  0.06  0.00  0.94  0.00  0.00  0.00  0.74  0.00
  HS02004852HS02004856    1.00   0.04  0.01  0.00  0.95  0.00  0.00  0.00  0.82  0.00
  HS02004802HS02004478    1.00   0.04  0.01  0.00  0.95  0.00  0.00  0.00  0.00  0.00
  HS02004478WS02006287    1.00   0.05  0.00  0.00  0.88  0.07  0.00  0.00  0.77  0.00
  HS02004817HS02004807    1.00   0.00  0.04  0.00  0.96  0.00  0.00  0.00  0.00  0.00
  HS02004807HS02004802    1.00   0.04  0.00  0.00  0.96  0.00  0.00  0.00  0.01  0.00
  YS02001759YS02001757    1.00   0.00  0.00  0.00  1.00  0.00  0.00  0.00  0.17  0.00
  YS02001762YS02001759    1.00   0.00  0.00  0.00  1.00  0.00  0.00  0.00  0.05  0.00
  YS02001765YS02001762    1.00   0.00  0.00  0.00  1.00  0.00  0.00  0.00  0.22  0.00
  YS02001770YS02001767    1.00   0.00  0.00  0.00  1.00  0.00  0.00  0.00  0.00  0.00
  YS02001774YS02001770    1.00   0.00  0.05  0.00  0.95  0.00  0.00  0.00  0.06  0.00
  YS02001779YS02001774    1.00   0.00  0.00  0.00  1.00  0.00  0.00  0.00  0.26  0.00
  YS02001649YS02001757    1.00   0.00  0.00  0.00  1.00  0.00  0.00  0.00  0.19  0.00
  YS02001767YS02001765    1.00   0.00  0.00  0.00  1.00  0.00  0.00  0.00  0.01  0.00
  YS02006561YS02001783    1.00   0.06  0.00  0.00  0.00  0.93  0.00  0.00  0.73  0.00
  YS02001783YS02001784    1.00   0.00  0.07  0.00  0.93  0.00  0.00  0.00  0.00  0.00
  YS02001784YS02001785    1.00   0.00  0.00  0.00  1.00  0.00  0.00  0.00  0.25  0.00
  YS02001788YS02001790    1.00   0.00  0.00  0.00  0.07  0.93  0.00  0.00  0.77  0.00
  YS02001790YS02001791    1.00   0.00  0.00  0.00  0.02  0.98  0.00  0.00  0.54  0.00
  YS02001791YS02001793    1.00   0.00  0.00  0.00  0.00  1.00  0.00  0.00  0.00  0.00
  YS02001910YS02001907    1.00   0.00  0.00  0.00  0.98  0.00  0.00  0.02  0.13  0.00
  YS02001786YS02001788    1.00   0.00  0.00  0.00  0.07  0.93  0.00  0.00  0.00  0.00
  YS02001915YS02001910    1.00   0.00  0.00  0.00  1.00  0.00  0.00  0.00  0.24  0.00
  YS02001918YS02001915    1.00   0.00  0.01  0.00  0.99  0.00  0.00  0.00  0.81  0.00
  YS02001923YS02001920    1.00   0.00  0.00  0.00  1.00  0.00  0.00  0.00  1.00  0.00
  YS02001926YS02001923    1.00   0.00  0.03  0.00  0.00  0.00  0.97  0.00  0.00  0.00
  YS02001929YS02001926    1.00   0.00  0.04  0.00  0.96  0.00  0.00  0.00  0.87  0.00
  YS02001920YS02001918    1.00   0.00  0.01  0.00  0.99  0.00  0.00  0.00  0.00  0.00
  YS02001629YS02163301    1.00   0.06  0.00  0.00  0.94  0.00  0.00  0.00  0.00  0.00
  YS02001619YS02001622    1.00   0.04  0.00  0.00  0.96  0.00  0.00  0.00  0.00  0.00
  YS02001622YS02001625    1.00   0.04  0.00  0.00  0.96  0.00  0.00  0.00  0.13  0.00
  YS02001625YS02001629    1.00   0.04  0.03  0.00  0.92  0.00  0.01  0.00  0.00  0.00
  YS02163301YS02001633    1.00   0.00  0.06  0.00  0.94  0.00  0.00  0.00  0.00  0.00
  YS02163601YS02164001    1.00   0.00  0.03  0.00  0.97  0.00  0.00  0.00  0.00  0.00
  YS02164001YS02001641    1.00   0.01  0.02  0.00  0.97  0.00  0.00  0.00  0.07  0.00
  YS02001641YS02001644    1.00   0.00  0.01  0.00  0.99  0.00  0.00  0.00  0.00  0.00
  YS02001647YS02001649    1.00   0.00  0.06  0.00  0.94  0.00  0.00  0.00  0.01  0.00
  YS02006553YS02006556    1.00   0.02  0.00  0.00  0.98  0.00  0.00  0.00  0.03  0.00
  YS02006556YS02006558    1.00   0.00  0.01  0.00  0.99  0.00  0.00  0.00  0.00  0.00
  YSB6556YSB1171          1.00   0.02  0.02  0.00  0.96  0.00  0.00  0.00  0.00  0.00
  YS02001907YS02006553    1.00   0.00  0.02  0.00  0.98  0.00  0.00  0.00  0.00  0.00
  YS02006558YS02006561    1.00   0.06  0.00  0.00  0.00  0.93  0.00  0.00  0.72  0.00
  YS02001633YS02163601    1.00   0.00  0.01  0.00  0.99  0.00  0.00  0.00  0.20  0.00
  YS02001644YS02001647    1.00   0.00  0.06  0.00  0.94  0.00  0.00  0.00  0.00  0.00
  YS02001745YS02001748    1.00   0.00  0.00  0.00  0.86  0.02  0.00  0.12  0.31  0.00
  YS02001748YS02001751    1.00   0.00  0.00  0.00  0.98  0.02  0.00  0.00  0.24  0.00
  YS02001751YS02001754    1.00   0.00  0.00  0.00  0.93  0.00  0.00  0.07  0.02  0.00
  YS02001754YS02001757    1.00   0.00  0.00  0.00  0.99  0.01  0.00  0.00  0.26  0.00
  YS02001882YS02001884    1.00   0.05  0.00  0.00  0.94  0.00  0.00  0.00  0.00  0.00
  YS02001884YS02001887    1.00   0.03  0.01  0.00  0.96  0.00  0.00  0.00  0.00  0.00
  YS02001890YS02001895    1.00   0.00  0.06  0.00  0.94  0.00  0.00  0.00  0.00  0.00
  YS02001895YS02001898    1.00   0.06  0.00  0.00  0.93  0.00  0.01  0.00  0.00  0.00
  YS02001898YS02001901    1.00   0.06  0.00  0.00  0.94  0.00  0.00  0.00  0.02  0.00
  YS02001901YS02001904    1.00   0.06  0.00  0.00  0.94  0.00  0.00  0.00  0.00  0.00
  YS02001904YS02001907    1.00   0.00  0.05  0.00  0.94  0.00  0.00  0.00  0.00  0.00
  YS02001887YS02001890    1.00   0.00  0.00  0.00  0.98  0.00  0.02  0.00  0.00  0.00
  YS02001652YS02001649    1.00   0.00  0.00  0.00  1.00  0.00  0.00  0.00  0.26  0.00
  YS02001655YS02001652    1.00   0.00  0.00  0.00  0.93  0.00  0.00  0.07  0.02  0.00
  YS02001658YS02001655    1.00   0.00  0.05  0.00  0.92  0.02  0.00  0.00  0.11  0.00
  YS02001661YS02001658    1.00   0.05  0.00  0.00  0.86  0.09  0.00  0.00  0.28  0.00
  YS02001664YS02001661    1.00   0.04  0.00  0.00  0.76  0.20  0.00  0.00  0.86  0.00
  YSB1154YSB6556          1.00   0.04  0.00  0.00  0.96  0.00  0.00  0.00  0.02  0.00
  YSB1174YSB1171          1.00   0.02  0.01  0.00  0.97  0.00  0.00  0.00  0.00  0.00
  YSB1171HS02004479       1.00   0.02  0.00  0.00  0.97  0.00  0.00  0.00  0.13  0.00
  HS02004881HS02006253    1.00   0.03  0.00  0.00  0.63  0.02  0.00  0.33  0.49  0.00
  YS02001793JiankangQianchi    1.00   0.00  0.00  0.00  0.09  0.91  0.00  0.00  0.09  0.00
  YS02001757CaochengTiaoxuchi    1.00   0.00  0.08  0.00  0.92  0.00  0.00  0.00  0.00  0.00
  WSF200WS02003060        1.00   0.00  0.05  0.00  0.51  0.44  0.00  0.00  0.31  0.00
  1                       1.00   0.00  0.00  0.00  0.00  1.00  0.00  0.00  0.38  0.00
  2                       1.00   0.78  0.00  0.00  0.00  0.22  0.00  0.00  0.05  0.00
  3                       1.00   0.13  0.00  0.00  0.00  0.87  0.00  0.00  0.04  0.00
  4                       1.00   1.00  0.00  0.00  0.00  0.00  0.00  0.00  0.00  0.00
  
  
  *************************
  Conduit Surcharge Summary
  *************************
  
  ----------------------------------------------------------------------------
                                                           Hours        Hours 
                         --------- Hours Full --------   Above Full   Capacity
  Conduit                Both Ends  Upstream  Dnstream   Normal Flow   Limited
  ----------------------------------------------------------------------------
  WS02006229WS02006228        0.77      1.04      0.77      3.92         0.77
  WS02006256WS02006235        5.60      5.60      7.35      3.73         0.01
  WS02006252WS02006251        0.86      0.86      1.52      1.35         0.01
  WS02006251WS02006249        0.01      0.01      0.01      0.82         0.01
  WS02006249WS02006248        0.01      0.01      0.01      3.44         0.01
  WS02006247WS02006245        0.01      0.01      0.01      3.91         0.01
  WS02006243WS02006242        0.01      0.01      0.62      0.01         0.01
  WS02006242WS02006240        0.01      0.01      0.95      1.49         0.01
  WS02006239WS02006238        0.79      0.79      0.85      0.22         0.24
  WS02006238WS02006235        0.71      0.71      1.09      0.01         0.01
  WS02006235WS02006234        0.01      0.01      0.33      5.63         0.01
  WS02006234WS02006232        0.01      0.01      1.11      0.01         0.01
  WS02006232WS02006231        0.01      0.01      1.11      0.01         0.01
  WS02006231WS02006230        0.01      0.01      0.01      5.60         0.01
  WS02006230WS02006229        1.82      3.33      1.82      5.67         1.82
  WS02006228WS02006109        0.91      1.42      0.91      4.92         0.91
  WS02006111WS02006112        0.01      0.01      4.23      0.01         0.01
  WS02006110WS02006113        0.01      0.01      1.22      0.01         0.01
  WS02006109WS02006110        0.01      0.01      1.41      0.01         0.01
  WS02004404WS02004405        0.01      0.01      0.01      5.60         0.01
  WS02003072WS02003073        0.01      0.01      0.01      4.34         0.01
  YS02001759YS02001757        5.13      5.13      5.29      0.01         0.01
  YS02001762YS02001759        5.06      5.06      5.13      0.01         0.02
  YS02001765YS02001762        4.87      4.87      5.06      0.01         0.01
  YS02001770YS02001767        4.47      4.48      4.55      0.01         0.82
  YS02001774YS02001770        3.67      3.67      5.01      0.01         0.01
  YS02001779YS02001774        1.20      1.20      5.01      0.01         0.01
  YS02001649YS02001757        5.08      5.08      5.29      0.01         0.01
  YS02001767YS02001765        4.55      4.55      4.87      0.01         0.02
  YS02001629YS02163301        3.25      3.25      4.01      0.01         0.01
  YS02001622YS02001625        0.01      0.01      2.89      0.01         0.01
  YS02001625YS02001629        0.01      0.01      2.89      0.01         0.01
  YS02163301YS02001633        4.01      4.01      4.88      0.01         0.01
  YS02163601YS02164001        4.86      4.86      5.07      0.01         0.01
  YS02164001YS02001641        4.86      4.86      4.97      0.01         0.01
  YS02001641YS02001644        4.97      4.97      4.98      0.01         0.40
  YS02001647YS02001649        2.78      2.78      5.08      0.01         0.01
  YS02001633YS02163601        4.73      4.73      5.07      0.01         0.01
  YS02001644YS02001647        2.78      2.78      4.98      0.01         0.01
  YS02001751YS02001754        0.01      0.01      1.79      0.01         0.01
  YS02001754YS02001757        2.82      2.82      5.29      0.01         0.01
  YS02001652YS02001649        2.93      2.93      5.08      0.01         0.01
  YS02001655YS02001652        0.01      0.01      2.33      0.01         0.01
  YS02001658YS02001655        0.01      0.01      0.01      0.01         0.01
  YS02001793JiankangQianchi        0.01      0.01      0.36      0.01         0.01
  YS02001757CaochengTiaoxuchi        0.01      0.01      5.29      0.01         0.01
  3                           0.01      0.01      0.01      0.01         0.01
  
  
  ***************
  Pumping Summary
  ***************
  
  ---------------------------------------------------------------------------------------------------------
                                                  Min       Avg       Max     Total     Power    % Time Off
                        Percent   Number of      Flow      Flow      Flow    Volume     Usage    Pump Curve
  Pump                 Utilized   Start-Ups       LPS       LPS       LPS  10^6 ltr     Kw-hr    Low   High
  ---------------------------------------------------------------------------------------------------------
  CC-Pump-1               53.57           4      0.00    134.81    200.00     2.034      6.00    0.0    8.9
  CC-Pump-2               46.80           5      0.00    131.91    200.00     1.740      5.04    0.0    0.0
  JK-Pump-1               85.11           6      0.00    121.59    300.00     2.242     43.32    0.0    0.0
  JK-Pump-2               89.36           6      0.00    135.87    300.00     2.476     46.85    0.0    0.0
  XR-Pump-1               82.96           9      0.00     67.23     95.00     1.510     14.43    0.0    0.0
  XR-Pump-2               82.97           8      0.00     61.01     95.00     1.482     15.12    0.0    0.0
  XR-Pump-3               61.71           7      0.00     58.48     95.00     1.112     12.71    0.0    0.0
  XR-Pump-4               80.84           8      0.00     68.32     95.00     1.596     15.77    0.0    0.0
  

  Analysis begun on:  Tue Dec 21 11:36:48 2021
  Analysis ended on:  Tue Dec 21 11:36:52 2021
  Total elapsed time: 00:00:04