
  EPA STORM WATER MANAGEMENT MODEL - VERSION 5.1 (Build 5.3.0.dev0)
  --------------------------------------------------------------

  WARNING 04: minimum elevation drop used for Conduit WS02004404WS02004405
  WARNING 03: negative offset ignored for Link YS02001904YS02001907
  
  *********************************************************
  NOTE: The summary statistics displayed in this report are
  based on results found at every computational time step,  
  not just on results from each reporting time step.
  *********************************************************
  
  ****************
  Analysis Options
  ****************
  Flow Units ............... LPS
  Process Models:
    Rainfall/Runoff ........ YES
    RDII ................... NO
    Snowmelt ............... NO
    Groundwater ............ NO
    Flow Routing ........... YES
    Ponding Allowed ........ NO
    Water Quality .......... NO
  Infiltration Method ...... HORTON
  Flow Routing Method ...... DYNWAVE
  Surcharge Method ......... EXTRAN
  Starting Date ............ 08/28/2015 08:00:00
  Ending Date .............. 08/28/2015 15:50:00
  Antecedent Dry Days ...... 8.0
  Report Time Step ......... 00:01:00
  Wet Time Step ............ 00:01:00
  Dry Time Step ............ 00:01:00
  Routing Time Step ........ 5.00 sec
  Variable Time Step ....... YES
  Maximum Trials ........... 8
  Number of Threads ........ 4
  Head Tolerance ........... 0.001500 m
  
  
  **************************        Volume         Depth
  Runoff Quantity Continuity     hectare-m            mm
  **************************     ---------       -------
  Total Precipitation ......         1.913         4.188
  Evaporation Loss .........         0.000         0.000
  Infiltration Loss ........         0.472         1.033
  Surface Runoff ...........         0.641         1.403
  Final Storage ............         0.800         1.752
  Continuity Error (%) .....        -0.017
  
  
  **************************        Volume        Volume
  Flow Routing Continuity        hectare-m      10^6 ltr
  **************************     ---------     ---------
  Dry Weather Inflow .......         0.616         6.165
  Wet Weather Inflow .......         0.641         6.405
  Groundwater Inflow .......         0.000         0.000
  RDII Inflow ..............         0.000         0.000
  External Inflow ..........         0.102         1.024
  External Outflow .........         1.399        13.990
  Flooding Loss ............         0.000         0.001
  Evaporation Loss .........         0.000         0.000
  Exfiltration Loss ........         0.000         0.000
  Initial Stored Volume ....         0.076         0.761
  Final Stored Volume ......         0.183         1.833
  Continuity Error (%) .....       -10.241
  
  
  *************************
  Highest Continuity Errors
  *************************
  Node JK-storage (-50.41%)
  Node HS02004842 (36.86%)
  Node YS02001884 (31.01%)
  Node YS02001774 (16.65%)
  Node YSB1171 (10.58%)
  
  
  ***************************
  Time-Step Critical Elements
  ***************************
  Link WS02006252WS02006251 (74.00%)
  Link 3 (15.08%)
  Link WS02006238WS02006235 (3.21%)
  Link WS02006280WS02006229 (3.12%)
  
  
  ********************************
  Highest Flow Instability Indexes
  ********************************
  Link WS02006113WS02006111 (51)
  Link WS02006111WS02006112 (20)
  Link YS02001754YS02001757 (3)
  Link YS02001751YS02001754 (3)
  Link YS02001762YS02001759 (3)
  
  
  *************************
  Routing Time Step Summary
  *************************
  Minimum Time Step           :     0.50 sec
  Average Time Step           :     0.99 sec
  Maximum Time Step           :     5.00 sec
  Percent in Steady State     :    -0.00
  Average Iterations per Step :     2.01
  Percent Not Converging      :     0.06
  
  
  ***************************
  Subcatchment Runoff Summary
  ***************************
  
  ------------------------------------------------------------------------------------------------------------------------------
                            Total      Total      Total      Total     Imperv       Perv      Total       Total     Peak  Runoff
                           Precip      Runon       Evap      Infil     Runoff     Runoff     Runoff      Runoff   Runoff   Coeff
  Subcatchment                 mm         mm         mm         mm         mm         mm         mm    10^6 ltr      LPS
  ------------------------------------------------------------------------------------------------------------------------------
  sub0                       4.19       0.00       0.00       0.29       2.63       0.00       2.63        0.00     0.86   0.628
  sub1                       4.19       0.00       0.00       0.46       2.47       0.00       2.47        0.02     4.27   0.591
  sub2                       4.19       0.00       0.00       1.55       1.74       0.00       1.74        0.02     3.73   0.414
  sub3                       4.19       0.00       0.00       1.55       1.70       0.00       1.70        0.04     7.55   0.407
  sub4                       4.19       0.00       0.00       0.46       2.35       0.00       2.35        0.05     8.35   0.561
  sub5                       4.19       0.00       0.00       0.29       2.59       0.00       2.59        0.03     7.60   0.617
  sub7                       4.19       0.00       0.00       0.38       2.56       0.00       2.56        0.01     2.74   0.611
  sub8                       4.19       0.00       0.00       0.38       2.55       0.00       2.55        0.02     4.79   0.609
  sub9                       4.19       0.00       0.00       0.38       2.55       0.00       2.55        0.01     3.55   0.608
  sub10                      4.19       0.00       0.00       0.34       2.56       0.00       2.56        0.03     7.61   0.612
  sub11                      4.19       0.00       0.00       0.34       2.58       0.00       2.58        0.03     9.04   0.616
  sub12                      4.19       0.00       0.00       0.54       2.46       0.00       2.46        0.02     7.83   0.586
  sub14                      4.19       0.00       0.00       0.38       2.54       0.00       2.54        0.02     6.92   0.608
  sub15                      4.19       0.00       0.00       1.26       1.95       0.00       1.95        0.03     9.37   0.467
  sub16                      4.19       0.00       0.00       1.38       1.89       0.00       1.89        0.02     6.84   0.451
  sub17                      4.19       0.00       0.00       1.34       1.91       0.00       1.91        0.02     5.50   0.457
  sub22                      4.19       0.00       0.00       1.80       1.60       0.00       1.60        0.10    31.00   0.382
  sub23                      4.19       0.00       0.00       1.55       1.77       0.00       1.77        0.08    26.47   0.422
  sub60                      4.19       0.00       0.00       0.50       1.53       0.00       1.53        0.46    38.61   0.365
  sub61                      4.19       0.00       0.00       0.71       1.69       0.00       1.69        0.52    49.57   0.403
  sub62                      4.19       0.00       0.00       0.34       1.79       0.00       1.79        0.55    50.32   0.428
  sub63                      4.19       0.00       0.00       1.21       1.52       0.00       1.52        0.46    46.71   0.363
  sub64                      4.19       0.00       0.00       0.63       1.46       0.00       1.46        0.44    36.61   0.348
  sub65                      4.19       0.00       0.00       0.54       1.47       0.00       1.47        0.45    37.08   0.351
  sub66                      4.19       0.00       0.00       1.21       1.28       0.00       1.28        0.39    33.80   0.307
  sub67                      4.19       0.00       0.00       0.34       2.02       0.00       2.02        0.62    66.03   0.483
  sub68                      4.19       0.00       0.00       0.59       1.81       0.00       1.81        0.56    55.14   0.432
  sub69                      4.19       0.00       0.00       0.63       2.01       0.00       2.01        0.47    56.20   0.479
  sub70                      4.19       2.05       0.00       2.12       2.30       0.00       2.30        0.53    40.91   0.370
  sub71                      4.19       0.00       0.00       0.34       1.69       0.00       1.69        0.40    34.83   0.405
  sub72                      4.19       0.00       0.00       0.29       1.12       0.00       1.12        0.23    15.77   0.268
  sub73                      4.19       2.24       0.00       2.19       2.24       0.00       2.24        0.53    34.82   0.348
  sub74                      4.19       0.00       0.00       3.14       0.61       0.00       0.61        0.24    31.66   0.146
  
  
  ******************
  Node Depth Summary
  ******************
  
  ---------------------------------------------------------------------------------
                                 Average  Maximum  Maximum  Time of Max    Reported
                                   Depth    Depth      HGL   Occurrence   Max Depth
  Node                 Type       Meters   Meters   Meters  days hr:min      Meters
  ---------------------------------------------------------------------------------
  WS02001211           JUNCTION     0.64     0.76     5.60     0  03:42        0.76
  WS02001212           JUNCTION     0.37     0.47     5.54     0  03:43        0.47
  WS02001213           JUNCTION     0.59     0.71     5.48     0  03:43        0.71
  WS02003069           JUNCTION     0.41     0.52     5.11     0  03:45        0.52
  WS02003072           JUNCTION     0.48     0.59     4.96     0  03:45        0.59
  WS02003073           JUNCTION     0.28     0.36     4.42     0  03:46        0.36
  WS02003060           JUNCTION     0.37     0.46     5.40     0  03:44        0.46
  WS02003066           JUNCTION     0.22     0.28     5.83     0  02:54        0.28
  WS02003059           JUNCTION     0.65     0.77     5.45     0  03:44        0.77
  WS02003067           JUNCTION     0.54     0.67     5.99     0  02:54        0.67
  WS02004401           JUNCTION     0.62     0.79     6.79     0  02:49        0.79
  WS02004402           JUNCTION     0.66     0.82     6.78     0  02:49        0.82
  WS02004403           JUNCTION     0.68     0.84     6.77     0  02:50        0.84
  WS02004404           JUNCTION     0.76     0.91     6.76     0  02:50        0.91
  WS02004406           JUNCTION     0.77     0.91     6.74     0  02:50        0.91
  WS02004409           JUNCTION     0.44     0.61     6.38     0  02:53        0.61
  WS02004410           JUNCTION     0.46     0.63     6.35     0  02:53        0.63
  WS02004411           JUNCTION     0.48     0.64     6.32     0  02:53        0.64
  WS02004412           JUNCTION     0.50     0.65     6.29     0  02:54        0.65
  WS02004413           JUNCTION     0.66     0.81     6.28     0  02:54        0.81
  WS02004405           JUNCTION     0.75     0.91     6.76     0  02:50        0.91
  WS02006109           JUNCTION     0.70     0.90     7.51     0  02:43        0.90
  WS02006110           JUNCTION     0.70     0.87     7.46     0  02:44        0.87
  WS02006111           JUNCTION     0.20     0.27     6.97     0  02:44        0.27
  WS02006112           JUNCTION     0.79     0.98     6.86     0  02:48        0.97
  WS02006113           JUNCTION     0.31     0.42     7.31     0  02:44        0.42
  WS02006115           JUNCTION     0.51     0.69     6.82     0  02:49        0.69
  WS02006116           JUNCTION     0.60     0.77     6.81     0  02:49        0.77
  WS02006230           JUNCTION     0.65     0.93     7.67     0  02:43        0.93
  WS02006231           JUNCTION     0.43     0.62     7.75     0  02:43        0.62
  WS02006232           JUNCTION     0.57     0.76     7.80     0  02:43        0.76
  WS02006234           JUNCTION     0.48     0.71     7.87     0  02:43        0.71
  WS02006235           JUNCTION     0.51     0.75     7.91     0  02:43        0.75
  WS02006238           JUNCTION     0.54     0.78     7.92     0  02:43        0.77
  WS02006240           JUNCTION     0.43     0.70     7.99     0  02:43        0.70
  WS02006242           JUNCTION     0.48     0.77     8.04     0  02:42        0.77
  WS02006243           JUNCTION     0.36     0.66     8.08     0  02:43        0.66
  WS02006245           JUNCTION     0.35     0.62     8.11     0  02:43        0.62
  WS02006247           JUNCTION     0.38     0.63     8.13     0  02:43        0.63
  WS02006248           JUNCTION     0.32     0.57     8.15     0  02:42        0.56
  WS02006249           JUNCTION     0.36     0.58     8.18     0  02:42        0.58
  WS02006239           JUNCTION     0.49     0.75     7.96     0  02:43        0.75
  WS02006251           JUNCTION     0.35     0.60     8.27     0  02:40        0.60
  WS02006252           JUNCTION     0.32     0.58     8.83     0  05:00        0.58
  WS02006253           JUNCTION     0.38     0.63     8.28     0  02:40        0.63
  WS02006256           JUNCTION     0.94     2.35     9.28     0  00:00        1.19
  WS02004138           JUNCTION     0.15     0.19     7.44     0  03:40        0.19
  WS02004407           JUNCTION     0.20     0.27     6.59     0  02:50        0.27
  WS02006228           JUNCTION     0.69     0.92     7.57     0  02:43        0.92
  WS02006229           JUNCTION     0.66     0.91     7.60     0  02:43        0.91
  WS02006280           JUNCTION     0.05     0.11     8.38     0  02:22        0.11
  WS02006284           JUNCTION     0.34     0.44     8.83     0  02:22        0.44
  WS02006287           JUNCTION     0.07     0.16     9.12     0  02:22        0.16
  WSF200               JUNCTION     0.20     0.28     5.51     0  02:59        0.28
  HS02004901           JUNCTION     0.10     0.19    10.01     0  02:20        0.19
  HS02004881           JUNCTION     0.00     0.02     9.05     0  02:21        0.02
  HS02004876           JUNCTION     0.03     0.09     9.12     0  02:21        0.09
  HS02004870           JUNCTION     0.01     0.03     9.32     0  02:21        0.03
  HS02004862           JUNCTION     0.01     0.03     9.42     0  02:23        0.03
  HS02004856           JUNCTION     0.07     0.09     9.52     0  02:22        0.09
  HS02004852           JUNCTION     0.00     0.02     9.53     0  02:23        0.02
  HS02004848           JUNCTION     0.00     0.02     9.62     0  02:20        0.02
  HS02004842           JUNCTION     0.33     0.35     9.62     0  02:19        0.35
  HS02004837           JUNCTION     0.02     0.04     9.62     0  02:20        0.04
  HS02004830           JUNCTION     0.03     0.05     9.52     0  02:20        0.05
  HS02004824           JUNCTION     0.02     0.03     9.43     0  02:23        0.03
  HS02004817           JUNCTION     0.42     0.49     9.34     0  02:22        0.49
  HS02004807           JUNCTION     0.10     0.16     9.33     0  02:22        0.16
  HS02004802           JUNCTION     0.14     0.20     9.33     0  02:22        0.20
  HS02004799           JUNCTION     0.09     0.20     9.41     0  02:21        0.20
  HS02004792           JUNCTION     0.02     0.07     9.59     0  02:20        0.07
  HS02004788           JUNCTION     0.02     0.05     9.95     0  02:21        0.05
  HS02004785           JUNCTION     0.03     0.10    10.00     0  02:21        0.10
  HS02004777           JUNCTION     0.12     0.21    10.01     0  02:21        0.21
  HS02004770           JUNCTION     0.09     0.18    10.01     0  02:21        0.18
  HS02004480           JUNCTION     0.05     0.15     9.39     0  02:21        0.15
  HS02004479           JUNCTION     0.09     0.19     9.39     0  02:21        0.19
  HS02004478           JUNCTION     0.04     0.09     9.32     0  02:22        0.09
  YS02001745           JUNCTION     0.06     0.09     7.60     0  03:01        0.09
  YS02001748           JUNCTION     0.07     0.12     7.20     0  03:24        0.12
  YS02001751           JUNCTION     0.21     0.34     7.22     0  03:24        0.34
  YS02001754           JUNCTION     0.46     0.63     7.24     0  03:31        0.63
  YS02001762           JUNCTION     0.66     0.81     7.21     0  03:27        0.80
  YS02001765           JUNCTION     0.61     0.76     7.21     0  03:27        0.76
  YS02001767           JUNCTION     0.57     0.72     7.21     0  03:27        0.71
  YS02001770           JUNCTION     0.57     0.70     7.20     0  03:20        0.70
  YS02001774           JUNCTION     0.64     0.78     7.20     0  03:21        0.78
  YS02001779           JUNCTION     0.39     0.52     7.20     0  03:20        0.51
  YS02001882           JUNCTION     0.23     0.33     7.04     0  02:54        0.33
  YS02001884           JUNCTION     0.32     0.43     7.04     0  02:55        0.43
  YS02001759           JUNCTION     0.69     0.84     7.20     0  03:24        0.84
  YS02001887           JUNCTION     0.40     0.51     7.04     0  02:55        0.51
  YS02001890           JUNCTION     0.43     0.54     7.04     0  02:54        0.54
  YS02001898           JUNCTION     0.20     0.29     7.03     0  02:56        0.29
  YS02001901           JUNCTION     0.32     0.42     7.03     0  02:56        0.42
  YS02001904           JUNCTION     0.30     0.40     7.03     0  02:55        0.40
  YS02001907           JUNCTION     0.62     0.74     7.03     0  02:56        0.74
  YS02001910           JUNCTION     0.41     0.52     7.03     0  02:56        0.52
  YS02001915           JUNCTION     0.22     0.31     7.03     0  02:57        0.31
  YS02001918           JUNCTION     0.06     0.07     7.14     0  03:04        0.07
  YS02001619           JUNCTION     0.17     0.28     7.20     0  03:03        0.27
  YS02001629           JUNCTION     0.52     0.65     7.20     0  03:21        0.65
  YS02001641           JUNCTION     0.62     0.76     7.20     0  03:19        0.76
  YS02001644           JUNCTION     0.63     0.77     7.20     0  03:19        0.77
  YS02001652           JUNCTION     0.47     0.61     7.21     0  03:21        0.61
  YS02001655           JUNCTION     0.24     0.35     7.20     0  03:20        0.35
  YS02001920           JUNCTION     0.15     0.17     7.17     0  03:03        0.17
  YS02001923           JUNCTION     0.05     0.06     7.32     0  03:02        0.06
  YS02001926           JUNCTION     0.11     0.13     7.58     0  03:02        0.13
  YS02001929           JUNCTION     0.05     0.06     7.76     0  03:01        0.06
  YS02001658           JUNCTION     0.06     0.10     7.24     0  02:47        0.10
  YS02001661           JUNCTION     0.13     0.16     7.57     0  02:47        0.16
  YS02001664           JUNCTION     0.05     0.08     8.01     0  02:46        0.08
  YS02001622           JUNCTION     0.19     0.30     7.20     0  03:03        0.30
  YS02001633           JUNCTION     0.61     0.75     7.20     0  03:20        0.75
  YS02001649           JUNCTION     0.67     0.81     7.20     0  03:17        0.81
  YS02001757           JUNCTION     0.79     0.95     7.21     0  03:25        0.94
  YS02001895           JUNCTION     0.19     0.29     7.04     0  02:55        0.29
  YS02001625           JUNCTION     0.47     0.60     7.20     0  03:04        0.60
  YS02163301           JUNCTION     0.55     0.68     7.20     0  03:19        0.68
  YS02163601           JUNCTION     0.66     0.81     7.20     0  03:20        0.81
  YS02164001           JUNCTION     0.60     0.74     7.20     0  03:09        0.74
  YS02001647           JUNCTION     0.46     0.59     7.20     0  03:23        0.59
  YSB1154              JUNCTION     0.23     0.33     9.39     0  02:21        0.33
  YSB6556              JUNCTION     0.12     0.22     9.39     0  02:21        0.22
  YSB1174              JUNCTION     0.18     0.28     9.39     0  02:21        0.28
  YSB1171              JUNCTION     0.38     0.49     9.39     0  02:21        0.49
  YS02006553           JUNCTION     0.63     0.74     7.03     0  02:56        0.74
  YS02006561           JUNCTION     0.11     0.16     6.82     0  02:57        0.16
  YS02006556           JUNCTION     0.60     0.71     7.03     0  02:57        0.71
  YS02006558           JUNCTION     0.65     0.76     7.03     0  02:57        0.76
  YS02001783           JUNCTION     0.18     0.28     6.42     0  02:57        0.28
  YS02001784           JUNCTION     0.22     0.31     6.38     0  02:56        0.31
  YS02001786           JUNCTION     0.19     0.27     6.30     0  02:57        0.27
  YS02001788           JUNCTION     0.13     0.19     6.17     0  02:57        0.19
  YS02001790           JUNCTION     0.16     0.24     5.88     0  02:58        0.24
  YS02001791           JUNCTION     0.11     0.16     5.63     0  02:59        0.16
  YS02001793           JUNCTION     0.07     0.11     4.94     0  03:07        0.10
  WS02004139           JUNCTION     0.58     0.71     5.62     0  03:42        0.70
  WSC                  OUTFALL      0.28     0.36     1.03     0  03:46        0.36
  3                    OUTFALL      0.05     0.23     6.23     0  00:00        0.19
  4                    OUTFALL      0.01     0.08     7.08     0  02:42        0.08
  5                    OUTFALL      0.00     0.00     5.00     0  00:00        0.00
  JK-storage           STORAGE      0.06     3.00     3.80     0  00:00        2.39
  CC-storage           STORAGE      0.04     0.11     7.11     0  04:18        0.11
  XR-storage           STORAGE      5.27     6.77     4.77     0  06:06        6.77
  
  
  *******************
  Node Inflow Summary
  *******************
  
  -------------------------------------------------------------------------------------------------
                                  Maximum  Maximum                  Lateral       Total        Flow
                                  Lateral    Total  Time of Max      Inflow      Inflow     Balance
                                   Inflow   Inflow   Occurrence      Volume      Volume       Error
  Node                 Type           LPS      LPS  days hr:min    10^6 ltr    10^6 ltr     Percent
  -------------------------------------------------------------------------------------------------
  WS02001211           JUNCTION      7.35   375.99     0  03:20       0.207        6.56       0.464
  WS02001212           JUNCTION      0.00   368.54     0  03:21           0        6.53       0.276
  WS02001213           JUNCTION      0.00   366.46     0  03:21           0        6.52       0.265
  WS02003069           JUNCTION      0.32   784.84     0  03:44     0.00902        12.7       0.179
  WS02003072           JUNCTION      0.00   784.71     0  03:45           0        12.7       0.233
  WS02003073           JUNCTION      1.82   786.74     0  03:45      0.0514        12.7       0.255
  WS02003060           JUNCTION     16.53   784.57     0  03:44       0.466        12.7       0.174
  WS02003066           JUNCTION      0.00   456.58     0  02:54           0        5.79       0.062
  WS02003059           JUNCTION      0.00   365.65     0  03:22           0         6.5       0.507
  WS02003067           JUNCTION      0.00   456.57     0  02:54           0        5.79       0.135
  WS02004401           JUNCTION      0.00   463.09     0  02:48           0        5.99       0.294
  WS02004402           JUNCTION      0.00   462.04     0  02:49           0        5.97       0.284
  WS02004403           JUNCTION      0.00   461.62     0  02:49           0        5.95       0.263
  WS02004404           JUNCTION      0.16   461.55     0  02:50     0.00457        5.94       0.203
  WS02004406           JUNCTION      0.00   461.80     0  02:50           0        5.91       0.498
  WS02004409           JUNCTION      0.00   461.28     0  02:50           0        5.88       0.205
  WS02004410           JUNCTION      0.00   459.27     0  02:51           0        5.86       0.242
  WS02004411           JUNCTION      0.00   457.88     0  02:51           0        5.85       0.255
  WS02004412           JUNCTION      0.00   456.97     0  02:52           0        5.84       0.286
  WS02004413           JUNCTION      0.00   456.66     0  02:53           0        5.82       0.438
  WS02004405           JUNCTION      0.04   461.69     0  02:50     0.00107        5.93       0.309
  WS02006109           JUNCTION      1.23   471.16     0  02:44      0.0347        6.07       0.284
  WS02006110           JUNCTION      0.00   471.18     0  02:43           0        6.05       0.254
  WS02006111           JUNCTION      0.00   485.78     0  02:44           0        6.03       0.045
  WS02006112           JUNCTION      5.50   475.37     0  02:44      0.0164        6.04       0.391
  WS02006113           JUNCTION      0.00   471.20     0  02:44           0        6.03       0.108
  WS02006115           JUNCTION      0.00   468.98     0  02:46           0        6.02       0.255
  WS02006116           JUNCTION      0.00   464.76     0  02:46           0           6       0.254
  WS02006230           JUNCTION     10.28   390.42     0  04:42        0.29        5.42       0.154
  WS02006231           JUNCTION      0.00   381.65     0  04:42           0        5.14       0.181
  WS02006232           JUNCTION      0.00   381.76     0  04:42           0        5.15       0.232
  WS02006234           JUNCTION      0.00   382.71     0  04:42           0        5.16       0.067
  WS02006235           JUNCTION      0.00   383.40     0  04:41           0        5.19       0.152
  WS02006238           JUNCTION      0.00   327.60     0  03:30           0        3.44       0.113
  WS02006240           JUNCTION      0.00   332.27     0  03:30           0        3.42       0.158
  WS02006242           JUNCTION      0.00   335.50     0  03:31           0        3.42       0.217
  WS02006243           JUNCTION      0.00   336.38     0  03:31           0        3.41      -0.379
  WS02006245           JUNCTION      0.00   339.72     0  02:40           0        3.41       0.251
  WS02006247           JUNCTION      0.00   345.60     0  02:39           0        3.42       0.100
  WS02006248           JUNCTION      0.00   352.22     0  02:40           0        3.42      -0.010
  WS02006249           JUNCTION      0.00   408.36     0  02:40           0         3.5       0.230
  WS02006239           JUNCTION      0.00   329.74     0  03:30           0        3.43       0.144
  WS02006251           JUNCTION      0.08   411.32     0  02:40     0.00217        3.55       0.103
  WS02006252           JUNCTION      0.00   399.94     0  02:40           0        3.41       0.002
  WS02006253           JUNCTION      0.86    27.04     0  06:31     0.00213       0.134       1.071
  WS02006256           JUNCTION      0.00   600.00     0  00:00           0        3.02       0.055
  WS02004138           JUNCTION      0.00   379.98     0  03:40           0        6.38       0.058
  WS02004407           JUNCTION      0.00   461.43     0  02:50           0        5.88       0.093
  WS02006228           JUNCTION      0.00   469.93     0  02:44           0        6.04       0.195
  WS02006229           JUNCTION      0.00   469.86     0  02:43           0        6.05       0.148
  WS02006280           JUNCTION      0.00   124.71     0  02:23           0       0.639       0.011
  WS02006284           JUNCTION      0.10   124.71     0  02:22      0.0027        0.64       0.177
  WS02006287           JUNCTION      0.00   124.63     0  02:22           0       0.638       0.108
  WSF200               JUNCTION      0.00   456.58     0  02:54           0        5.78       0.055
  HS02004901           JUNCTION      6.84     6.84     0  02:13      0.0198      0.0199       9.677
  HS02004881           JUNCTION      2.74    22.41     0  02:21     0.00861      0.0892       0.213
  HS02004876           JUNCTION      4.27    19.93     0  02:21      0.0164      0.0811       0.641
  HS02004870           JUNCTION      4.79    15.78     0  02:21      0.0163      0.0648       0.163
  HS02004862           JUNCTION      3.93    11.36     0  02:21      0.0218      0.0486       0.342
  HS02004856           JUNCTION      3.55     7.48     0  02:20      0.0122      0.0283       5.359
  HS02004852           JUNCTION      0.00     4.19     0  02:21           0      0.0161       0.295
  HS02004848           JUNCTION      7.55     7.55     0  02:23      0.0383      0.0383       0.109
  HS02004842           JUNCTION      0.00     4.47     0  00:03           0      0.0353      58.371
  HS02004837           JUNCTION     13.96    17.18     0  02:19       0.207        0.23       0.356
  HS02004830           JUNCTION      0.15    17.32     0  02:20     0.00423        0.22       0.563
  HS02004824           JUNCTION      8.40    25.62     0  02:23      0.0504       0.269       0.200
  HS02004817           JUNCTION      0.60    26.22     0  02:23      0.0169       0.285       6.196
  HS02004807           JUNCTION      9.04    34.38     0  02:22      0.0299       0.299       1.434
  HS02004802           JUNCTION      0.00    34.42     0  02:24           0       0.295       1.395
  HS02004799           JUNCTION      6.92    76.88     0  02:19      0.0242       0.312       0.725
  HS02004792           JUNCTION     31.28    70.22     0  02:19       0.109       0.288       0.144
  HS02004788           JUNCTION     11.04    40.96     0  02:21      0.0807        0.18       0.215
  HS02004785           JUNCTION      0.15    30.43     0  02:20     0.00423       0.102       0.471
  HS02004777           JUNCTION      0.03    30.88     0  02:18    0.000846       0.102       5.354
  HS02004770           JUNCTION     26.47    32.12     0  02:16      0.0843       0.102       3.116
  HS02004480           JUNCTION      0.00    90.48     0  02:20           0        0.36       0.190
  HS02004479           JUNCTION      0.00    13.94     0  02:23           0      0.0603       1.221
  HS02004478           JUNCTION      0.00   124.63     0  02:22           0       0.639       0.103
  YS02001745           JUNCTION     38.62    38.62     0  03:01       0.463       0.463       0.075
  YS02001748           JUNCTION      0.04    38.66     0  03:01     0.00127       0.464       0.055
  YS02001751           JUNCTION      0.01    84.19     0  03:38     0.00031       0.587       0.302
  YS02001754           JUNCTION      0.26   188.89     0  03:37     0.00733       0.998       0.946
  YS02001762           JUNCTION      0.00    60.44     0  03:37           0        0.59       2.310
  YS02001765           JUNCTION      0.00    86.31     0  03:34           0        0.58       2.461
  YS02001767           JUNCTION      0.54    60.64     0  02:33      0.0151       0.585       3.422
  YS02001770           JUNCTION     50.47    56.79     0  02:50       0.555       0.575       2.873
  YS02001774           JUNCTION      0.00    28.89     0  02:30           0       0.087      19.981
  YS02001779           JUNCTION      0.01    14.10     0  03:34    0.000141      0.0519      11.023
  YS02001882           JUNCTION      0.00     2.37     0  02:12           0     0.00344      71.318
  YS02001884           JUNCTION      0.00     7.38     0  02:07           0       0.014      44.958
  YS02001759           JUNCTION     49.61   122.57     0  03:33       0.521        1.08       1.479
  YS02001887           JUNCTION     66.48    66.48     0  02:44       0.637       0.643       1.034
  YS02001890           JUNCTION      0.00    66.11     0  02:47           0       0.625       1.174
  YS02001898           JUNCTION      0.00    65.82     0  02:50           0       0.614       0.291
  YS02001901           JUNCTION      0.00    65.85     0  02:50           0       0.614       0.813
  YS02001904           JUNCTION      0.00    65.57     0  02:51           0       0.614       0.759
  YS02001907           JUNCTION      0.00   118.56     0  02:58           0        1.31       1.644
  YS02001910           JUNCTION      0.00    53.68     0  03:01           0       0.704       1.362
  YS02001915           JUNCTION     34.85    53.37     0  03:01         0.4       0.707       0.552
  YS02001918           JUNCTION      0.00    18.67     0  03:03           0       0.308       0.269
  YS02001619           JUNCTION     33.80    33.80     0  02:59       0.393       0.393       0.137
  YS02001629           JUNCTION      0.00    38.93     0  02:39           0       0.377       1.428
  YS02001641           JUNCTION      0.00    75.74     0  03:32           0       0.799       1.605
  YS02001644           JUNCTION     36.65   110.28     0  03:04       0.444        1.22       1.267
  YS02001652           JUNCTION      0.00    61.62     0  03:47           0       0.511       1.703
  YS02001655           JUNCTION      0.15    46.86     0  02:47     0.00434       0.469       0.698
  YS02001920           JUNCTION      2.87    18.68     0  03:02      0.0809        0.31       0.550
  YS02001923           JUNCTION      0.04    15.81     0  03:02     0.00106       0.229       0.097
  YS02001926           JUNCTION      0.05    15.81     0  03:01     0.00147       0.229       0.706
  YS02001929           JUNCTION     15.77    15.77     0  03:01       0.228       0.228       0.092
  YS02001658           JUNCTION      0.00    46.71     0  02:47           0       0.459       0.041
  YS02001661           JUNCTION      0.00    46.71     0  02:46           0       0.459       0.159
  YS02001664           JUNCTION     46.71    46.71     0  02:46        0.46        0.46       0.031
  YS02001622           JUNCTION      0.00    34.73     0  03:03           0       0.393       0.630
  YS02001633           JUNCTION     37.28    78.08     0  02:38       0.458       0.822       2.257
  YS02001649           JUNCTION      0.00   179.13     0  03:36           0        1.68       1.402
  YS02001757           JUNCTION      0.00   414.18     0  03:34           0        3.46       2.038
  YS02001895           JUNCTION      0.00    65.90     0  02:49           0       0.618       0.513
  YS02001625           JUNCTION      0.00    36.80     0  02:47           0        0.39       3.878
  YS02163301           JUNCTION      0.00    40.30     0  02:38           0       0.377       3.301
  YS02163601           JUNCTION      0.11    76.31     0  02:38      0.0031       0.804       2.389
  YS02164001           JUNCTION      0.00    74.98     0  03:32           0       0.794       1.470
  YS02001647           JUNCTION      0.00   111.22     0  03:06           0         1.2       0.974
  YSB1154              JUNCTION      7.60     7.60     0  02:17      0.0293      0.0307       4.938
  YSB6556              JUNCTION      0.00     7.50     0  02:21           0      0.0317       4.081
  YSB1174              JUNCTION      7.83     7.83     0  02:12      0.0214      0.0225       6.063
  YSB1171              JUNCTION      0.00    13.97     0  02:20           0      0.0597      11.826
  YS02006553           JUNCTION      0.00   118.63     0  03:02           0         1.3       1.071
  YS02006561           JUNCTION      0.00   174.02     0  02:57           0        1.83       0.029
  YS02006556           JUNCTION      0.00   118.80     0  03:02           0         1.3       0.767
  YS02006558           JUNCTION     56.02   174.03     0  02:56        0.58        1.86       0.231
  YS02001783           JUNCTION      0.00   174.02     0  02:57           0        1.83       0.066
  YS02001784           JUNCTION      1.06   175.07     0  02:57      0.0299        1.86       0.111
  YS02001786           JUNCTION      0.06   175.11     0  02:57     0.00159        1.86       0.109
  YS02001788           JUNCTION      0.07   175.18     0  02:57       0.002        1.86       0.060
  YS02001790           JUNCTION      0.15   175.33     0  02:57     0.00437        1.86       0.078
  YS02001791           JUNCTION      0.00   175.33     0  02:58           0        1.86       0.038
  YS02001793           JUNCTION      0.00   176.61     0  03:07           0        1.86       0.015
  WS02004139           JUNCTION      0.32   379.27     0  03:40     0.00905        6.39       0.495
  WSC                  OUTFALL       0.00   787.14     0  03:46           0        12.7       0.000
  3                    OUTFALL       0.00   597.65     0  00:00           0        1.25       0.000
  4                    OUTFALL       0.00    65.77     0  02:42           0       0.074       0.000
  5                    OUTFALL       0.00     0.00     0  00:00           0           0       0.000 ltr
  JK-storage           STORAGE       0.00   178.56     0  02:58           0        2.01     -33.515
  CC-storage           STORAGE       0.00   284.55     0  03:05           0        2.99     -12.447
  XR-storage           STORAGE     263.35   263.35     0  02:52        6.41        7.01       0.000
  
  
  **********************
  Node Surcharge Summary
  **********************
  
  Surcharging occurs when water rises above the top of the highest conduit.
  ---------------------------------------------------------------------
                                               Max. Height   Min. Depth
                                   Hours       Above Crown    Below Rim
  Node                 Type      Surcharged         Meters       Meters
  ---------------------------------------------------------------------
  WS02006109           JUNCTION        0.57          0.075        1.745
  WS02006232           JUNCTION        0.62          0.062        1.418
  WS02006235           JUNCTION        0.19          0.037        1.253
  WS02006238           JUNCTION        0.36          0.055        1.375
  WS02006242           JUNCTION        0.13          0.039        0.781
  WS02006239           JUNCTION        0.06          0.008        1.282
  WS02006252           JUNCTION        1.05          0.185        0.915
  WS02006256           JUNCTION        0.01          1.050        0.000
  WS02006228           JUNCTION        0.53          0.087        2.113
  
  
  *********************
  Node Flooding Summary
  *********************
  
  Flooding refers to all water that overflows a node, whether it ponds or not.
  --------------------------------------------------------------------------
                                                             Total   Maximum
                                 Maximum   Time of Max       Flood    Ponded
                        Hours       Rate    Occurrence      Volume     Depth
  Node                 Flooded       LPS   days hr:min    10^6 ltr    Meters
  --------------------------------------------------------------------------
  WS02006256              0.01    406.11      0  00:00       0.001     0.000
  
  
  **********************
  Storage Volume Summary
  **********************
  
  --------------------------------------------------------------------------------------------------
                         Average     Avg  Evap Exfil       Maximum     Max    Time of Max    Maximum
                          Volume    Pcnt  Pcnt  Pcnt        Volume    Pcnt     Occurrence    Outflow
  Storage Unit           1000 m3    Full  Loss  Loss       1000 m3    Full    days hr:min        LPS
  --------------------------------------------------------------------------------------------------
  JK-storage               0.003       1     0     0         0.151      52       0  00:00     600.00
  CC-storage               0.103       1     0     0         0.317       2       0  04:18     399.94
  XR-storage               0.633      68     0     0         0.812      88       0  06:06     379.98
  
  
  ***********************
  Outfall Loading Summary
  ***********************
  
  -----------------------------------------------------------
                         Flow       Avg       Max       Total
                         Freq      Flow      Flow      Volume
  Outfall Node           Pcnt       LPS       LPS    10^6 ltr
  -----------------------------------------------------------
  WSC                   99.99    521.84    787.14      12.665
  3                     59.83    115.52    597.65       1.251
  4                     15.91     24.37     65.77       0.074
  5                      0.00      0.00      0.00       0.000
  -----------------------------------------------------------
  System                43.93    661.74   1012.67      13.990
  
  
  ********************
  Link Flow Summary
  ********************
  
  -----------------------------------------------------------------------------
                                 Maximum  Time of Max   Maximum    Max/    Max/
                                  |Flow|   Occurrence   |Veloc|    Full    Full
  Link                 Type          LPS  days hr:min     m/sec    Flow   Depth
  -----------------------------------------------------------------------------
  WS02003066WSF200     CONDUIT    456.58     0  02:54      2.68    0.08    0.21
  WS02006287WS02006284 CONDUIT    124.62     0  02:22      1.36    0.06    0.17
  WS02006284WS02006280 CONDUIT    124.71     0  02:23      1.61    0.05    0.16
  WS02006280WS02006229 CONDUIT    124.72     0  02:23      2.57    0.03    0.11
  WS02006229WS02006228 CONDUIT    469.93     0  02:44      0.93    1.56    1.00
  WS02006256WS02006235 CONDUIT    177.52     0  00:01      2.73    1.88    1.00
  WS02006253WS02006251 CONDUIT     87.09     0  06:40      0.44    0.26    0.88
  WS02006252WS02006251 CONDUIT    399.98     0  02:40      3.18    1.47    1.00
  WS02006251WS02006249 CONDUIT    408.36     0  02:40      1.18    1.18    0.84
  WS02006249WS02006248 CONDUIT    352.22     0  02:40      1.16    1.93    0.80
  WS02006248WS02006247 CONDUIT    345.60     0  02:39      1.13    0.75    0.85
  WS02006247WS02006245 CONDUIT    339.72     0  02:40      1.10    2.69    0.89
  WS02006245WS02006243 CONDUIT    336.38     0  03:31      1.13    0.99    0.91
  WS02006243WS02006242 CONDUIT    335.50     0  03:31      0.99    0.72    0.97
  WS02006242WS02006240 CONDUIT    332.27     0  03:30      0.94    1.32    0.99
  WS02006240WS02006239 CONDUIT    329.74     0  03:30      1.00    1.04    1.00
  WS02006239WS02006238 CONDUIT    327.60     0  03:30      0.90    1.05    1.00
  WS02006238WS02006235 CONDUIT    325.82     0  03:30      1.32    0.73    1.00
  WS02006235WS02006234 CONDUIT    382.71     0  04:42      1.04    4.04    0.99
  WS02006234WS02006232 CONDUIT    381.76     0  04:42      1.17    0.77    1.00
  WS02006232WS02006231 CONDUIT    381.65     0  04:42      1.04    0.80    0.94
  WS02006231WS02006230 CONDUIT    380.14     0  04:42      1.35    5.77    0.83
  WS02006230WS02006229 CONDUIT    389.24     0  04:43      1.01    8.66    1.00
  WS02006228WS02006109 CONDUIT    469.93     0  02:44      0.93    2.05    1.00
  WS02006116WS02004401 CONDUIT    463.09     0  02:48      0.71    0.64    0.78
  WS02006115WS02006116 CONDUIT    464.76     0  02:46      0.83    0.60    0.70
  WS02006113WS02006111 CONDUIT    485.78     0  02:44      2.35    0.58    0.43
  WS02006112WS02006115 CONDUIT    468.98     0  02:46      0.70    0.28    0.83
  WS02006111WS02006112 CONDUIT    472.94     0  02:44      1.34    0.22    0.66
  WS02006110WS02006113 CONDUIT    471.20     0  02:44      1.14    0.43    0.76
  WS02006109WS02006110 CONDUIT    471.18     0  02:43      0.94    0.91    0.98
  WS02004411WS02004412 CONDUIT    456.97     0  02:52      0.86    0.65    0.64
  WS02004401WS02004402 CONDUIT    462.04     0  02:49      0.68    0.55    0.81
  WS02004413WS02003067 CONDUIT    456.57     0  02:54      1.02    0.20    0.56
  WS02004412WS02004413 CONDUIT    456.66     0  02:53      0.74    0.31    0.73
  WS02004410WS02004411 CONDUIT    457.88     0  02:51      0.88    0.63    0.63
  WS02004409WS02004410 CONDUIT    459.27     0  02:51      0.92    0.59    0.62
  WS02004407WS02004409 CONDUIT    461.28     0  02:50      1.42    0.16    0.44
  WS02004406WS02004407 CONDUIT    461.43     0  02:50      0.95    0.21    0.59
  WS02004405WS02004406 CONDUIT    461.80     0  02:50      0.62    0.91    0.91
  WS02004404WS02004405 CONDUIT    461.65     0  02:50      0.62    4.52    0.91
  WS02004403WS02004404 CONDUIT    461.39     0  02:50      0.63    0.33    0.88
  WS02004402WS02004403 CONDUIT    461.62     0  02:49      0.66    0.66    0.83
  WS02004139WS02001211 CONDUIT    368.65     0  03:20      0.69    0.47    0.57
  WS02004138WS02004139 CONDUIT    378.95     0  03:40      2.94    0.08    0.42
  WS02003067WS02003066 CONDUIT    456.58     0  02:54      1.10    0.15    0.39
  WS02001213WS02003059 CONDUIT    365.65     0  03:22      0.64    0.60    0.73
  WS02001212WS02001213 CONDUIT    366.46     0  03:21      1.24    0.57    0.43
  WS02001211WS02001212 CONDUIT    368.54     0  03:21      0.75    0.28    0.62
  WS02003072WS02003073 CONDUIT    784.92     0  03:45      1.62    1.70    0.44
  WS02003069WS02003072 CONDUIT    784.71     0  03:45      1.53    0.38    0.46
  WS02003060WS02003069 CONDUIT    784.52     0  03:44      1.79    0.31    0.41
  WS02003059WS02003060 CONDUIT    365.71     0  03:22      0.82    0.24    0.62
  HS02004901HS02004770 CONDUIT      6.02     0  02:18      0.03    0.02    0.26
  HS02004876HS02004881 CONDUIT     19.94     0  02:22      0.39    0.21    0.07
  HS02004870HS02004876 CONDUIT     15.76     0  02:22      0.27    0.01    0.08
  HS02004842HS02004848 CONDUIT      3.57     0  02:31      0.02    0.00    0.26
  HS02004837HS02004842 CONDUIT      4.47     0  00:03      0.41    0.00    0.28
  HS02004830HS02004837 CONDUIT     17.17     0  02:20      0.38    0.02    0.06
  HS02004824HS02004830 CONDUIT     17.32     0  02:21      0.43    0.02    0.06
  HS02004817HS02004824 CONDUIT     25.62     0  02:23      0.17    0.01    0.37
  HS02004770HS02004777 CONDUIT     30.85     0  02:18      0.16    0.06    0.28
  HS02004799HS02004480 CONDUIT     76.73     0  02:20      0.45    0.10    0.24
  HS02004792HS02004799 CONDUIT     70.18     0  02:20      0.52    0.04    0.19
  HS02004788HS02004792 CONDUIT     40.92     0  02:21      0.69    0.03    0.09
  HS02004785HS02004788 CONDUIT     30.31     0  02:21      0.40    0.23    0.11
  HS02004777HS02004785 CONDUIT     30.28     0  02:20      0.20    0.04    0.22
  HS02004480HS02004478 CONDUIT     90.46     0  02:21      0.77    0.38    0.17
  HS02004479HS02004480 CONDUIT     14.06     0  02:23      0.15    0.01    0.24
  HS02004862HS02004870 CONDUIT     11.32     0  02:23      0.37    0.01    0.04
  HS02004848HS02004852 CONDUIT      4.19     0  02:21      0.24    0.00    0.03
  HS02004856HS02004862 CONDUIT      7.45     0  02:22      0.27    0.01    0.04
  HS02004852HS02004856 CONDUIT      4.16     0  02:23      0.08    0.00    0.08
  HS02004802HS02004478 CONDUIT     34.58     0  02:25      0.23    0.03    0.21
  HS02004478WS02006287 CONDUIT    124.63     0  02:22      1.05    0.03    0.13
  HS02004817HS02004807 CONDUIT     26.43     0  02:26      0.08    0.02    0.47
  HS02004807HS02004802 CONDUIT     34.42     0  02:24      0.19    0.07    0.25
  YS02001759YS02001757 CONDUIT    110.46     0  02:59      0.15    0.08    0.89
  YS02001762YS02001759 CONDUIT     85.00     0  03:33      0.17    0.10    0.82
  YS02001765YS02001762 CONDUIT     60.44     0  03:37      0.22    0.06    0.78
  YS02001770YS02001767 CONDUIT     60.11     0  02:33      0.31    0.24    0.71
  YS02001774YS02001770 CONDUIT     28.89     0  02:30      0.12    0.02    0.73
  YS02001779YS02001774 CONDUIT     15.33     0  03:34      0.07    0.01    0.64
  YS02001649YS02001757 CONDUIT    168.18     0  03:34      0.23    0.10    0.88
  YS02001767YS02001765 CONDUIT     86.31     0  03:34      0.26    0.11    0.73
  YS02006561YS02001783 CONDUIT    174.02     0  02:57      1.53    0.09    0.28
  YS02001783YS02001784 CONDUIT    174.01     0  02:57      1.02    0.24    0.37
  YS02001784YS02001785 CONDUIT    175.06     0  02:57      1.06    0.41    0.36
  YS02001788YS02001790 CONDUIT    175.17     0  02:57      1.61    0.13    0.27
  YS02001790YS02001791 CONDUIT    175.33     0  02:58      1.84    0.19    0.25
  YS02001791YS02001793 CONDUIT    176.61     0  03:07      3.67    0.08    0.16
  YS02001910YS02001907 CONDUIT     53.74     0  03:01      0.49    0.03    0.62
  YS02001786YS02001788 CONDUIT    175.11     0  02:57      1.46    0.34    0.29
  YS02001915YS02001910 CONDUIT     53.68     0  03:01      0.44    0.03    0.41
  YS02001918YS02001915 CONDUIT     18.66     0  03:04      0.44    0.01    0.19
  YS02001923YS02001920 CONDUIT     15.81     0  03:02      0.32    0.01    0.11
  YS02001926YS02001923 CONDUIT     15.78     0  03:02      0.38    0.02    0.10
  YS02001929YS02001926 CONDUIT     15.76     0  03:01      0.40    0.01    0.10
  YS02001920YS02001918 CONDUIT     18.67     0  03:03      0.36    0.02    0.12
  YS02001629YS02163301 CONDUIT     40.30     0  02:38      0.09    0.05    0.67
  YS02001619YS02001622 CONDUIT     34.73     0  03:03      0.56    0.05    0.29
  YS02001622YS02001625 CONDUIT     36.80     0  02:47      0.18    0.02    0.45
  YS02001625YS02001629 CONDUIT     38.93     0  02:39      0.18    0.02    0.43
  YS02163301YS02001633 CONDUIT     43.00     0  02:38      0.09    0.04    0.72
  YS02163601YS02164001 CONDUIT     74.98     0  03:32      0.12    0.07    0.77
  YS02164001YS02001641 CONDUIT     75.74     0  03:32      0.12    0.10    0.75
  YS02001641YS02001644 CONDUIT     74.46     0  03:04      0.13    0.24    0.77
  YS02001647YS02001649 CONDUIT    112.83     0  03:36      0.20    0.06    0.70
  YS02006553YS02006556 CONDUIT    118.80     0  03:02      0.20    0.10    0.71
  YS02006556YS02006558 CONDUIT    118.91     0  03:02      0.19    0.09    0.74
  YSB6556YSB1171       CONDUIT      7.54     0  02:24      0.04    0.01    0.51
  YS02001907YS02006553 CONDUIT    118.63     0  03:02      0.16    0.14    0.81
  YS02006558YS02006561 CONDUIT    174.02     0  02:57      1.97    0.38    0.35
  YS02001633YS02163601 CONDUIT     76.20     0  02:38      0.13    0.08    0.76
  YS02001644YS02001647 CONDUIT    111.22     0  03:06      0.20    0.07    0.68
  YS02001745YS02001748 CONDUIT     38.61     0  03:01      1.20    0.01    0.09
  YS02001748YS02001751 CONDUIT     48.07     0  03:30      0.95    0.02    0.22
  YS02001751YS02001754 CONDUIT    103.97     0  03:37      0.88    0.05    0.44
  YS02001754YS02001757 CONDUIT    150.94     0  03:37      0.33    0.06    0.78
  YS02001882YS02001884 CONDUIT      2.37     0  02:12      0.06    0.00    0.35
  YS02001884YS02001887 CONDUIT      7.38     0  02:07      0.05    0.01    0.44
  YS02001890YS02001895 CONDUIT     65.90     0  02:49      0.22    0.03    0.41
  YS02001895YS02001898 CONDUIT     65.82     0  02:50      0.44    0.11    0.28
  YS02001898YS02001901 CONDUIT     65.85     0  02:50      0.26    0.04    0.36
  YS02001901YS02001904 CONDUIT     65.57     0  02:51      0.22    0.10    0.41
  YS02001904YS02001907 CONDUIT     65.67     0  02:53      0.14    0.02    0.57
  YS02001887YS02001890 CONDUIT     66.11     0  02:47      0.17    0.11    0.50
  YS02001652YS02001649 CONDUIT     70.51     0  03:35      0.29    0.03    0.71
  YS02001655YS02001652 CONDUIT     59.84     0  03:26      0.94    0.03    0.46
  YS02001658YS02001655 CONDUIT     46.71     0  02:47      1.09    0.02    0.22
  YS02001661YS02001658 CONDUIT     46.71     0  02:47      1.22    0.02    0.10
  YS02001664YS02001661 CONDUIT     46.71     0  02:46      0.83    0.01    0.12
  YSB1154YSB6556       CONDUIT      7.50     0  02:21      0.19    0.01    0.40
  YSB1174YSB1171       CONDUIT      7.17     0  02:14      0.04    0.01    0.52
  YSB1171HS02004479    CONDUIT     13.94     0  02:23      0.54    0.01    0.39
  HS02004881HS02006253 CONDUIT     22.40     0  02:21      1.34    0.00    0.22
  YS02001793JiankangQianchi CONDUIT    178.56     0  02:58     11.09    0.01    0.50
  YS02001757CaochengTiaoxuchi CONDUIT    284.55     0  03:05      0.77    0.12    0.52
  WSF200WS02003060     CONDUIT    456.23     0  02:54      1.76    0.10    0.30
  1                    CONDUIT    787.14     0  03:46      3.12    0.27    0.36
  2                    CONDUIT     65.77     0  02:42      4.31    0.16    0.27
  3                    CONDUIT    597.65     0  00:00     10.05    0.95    0.86
  4                    CONDUIT      0.00     0  00:00      0.00    0.00    0.00
  CC-Pump-1            PUMP       200.00     0  02:38              1.00
  CC-Pump-2            PUMP       200.00     0  03:20              1.00
  JK-Pump-1            PUMP       300.00     0  00:00              1.00
  JK-Pump-2            PUMP       300.00     0  00:00              1.00
  XR-Pump-1            PUMP        95.00     0  00:00              1.00
  XR-Pump-2            PUMP        95.00     0  00:20              1.00
  XR-Pump-3            PUMP        95.00     0  00:00              1.00
  XR-Pump-4            PUMP        95.00     0  00:20              1.00
  
  
  ***************************
  Flow Classification Summary
  ***************************
  
  -------------------------------------------------------------------------------------
                      Adjusted    ---------- Fraction of Time in Flow Class ---------- 
                       /Actual         Up    Down  Sub   Sup   Up    Down  Norm  Inlet 
  Conduit               Length    Dry  Dry   Dry   Crit  Crit  Crit  Crit  Ltd   Ctrl  
  -------------------------------------------------------------------------------------
  WS02003066WSF200        1.00   0.08  0.00  0.00  0.00  0.92  0.00  0.00  0.69  0.00
  WS02006287WS02006284    1.00   0.04  0.02  0.00  0.73  0.21  0.00  0.00  0.81  0.00
  WS02006284WS02006280    1.00   0.04  0.00  0.00  0.00  0.00  0.00  0.96  0.00  0.00
  WS02006280WS02006229    1.00   0.04  0.00  0.00  0.00  0.00  0.00  0.96  0.00  0.00
  WS02006229WS02006228    1.00   0.00  0.00  0.00  0.98  0.00  0.00  0.02  0.00  0.00
  WS02006256WS02006235    1.00   0.00  0.00  0.00  1.00  0.00  0.00  0.00  0.00  0.00
  WS02006253WS02006251    1.00   0.03  0.01  0.00  0.96  0.00  0.00  0.00  0.00  0.00
  WS02006252WS02006251    1.00   0.09  0.00  0.00  0.00  0.00  0.91  0.00  0.00  0.00
  WS02006251WS02006249    1.00   0.00  0.00  0.00  1.00  0.00  0.00  0.00  0.32  0.00
  WS02006249WS02006248    1.00   0.00  0.02  0.00  0.88  0.00  0.10  0.00  0.00  0.00
  WS02006248WS02006247    1.00   0.02  0.00  0.00  0.97  0.00  0.00  0.01  0.21  0.00
  WS02006247WS02006245    1.00   0.02  0.00  0.00  0.96  0.00  0.00  0.02  0.00  0.00
  WS02006245WS02006243    1.00   0.02  0.00  0.00  0.92  0.00  0.00  0.06  0.02  0.00
  WS02006243WS02006242    1.00   0.01  0.01  0.00  0.98  0.00  0.00  0.00  0.30  0.00
  WS02006242WS02006240    1.00   0.01  0.00  0.00  0.99  0.00  0.00  0.00  0.00  0.00
  WS02006240WS02006239    1.00   0.00  0.00  0.00  0.95  0.00  0.00  0.05  0.02  0.00
  WS02006239WS02006238    1.00   0.00  0.00  0.00  1.00  0.00  0.00  0.00  0.04  0.00
  WS02006238WS02006235    1.00   0.00  0.00  0.00  1.00  0.00  0.00  0.00  0.00  0.00
  WS02006235WS02006234    1.00   0.00  0.00  0.00  0.94  0.00  0.06  0.00  0.00  0.00
  WS02006234WS02006232    1.00   0.00  0.00  0.00  1.00  0.00  0.00  0.00  0.06  0.00
  WS02006232WS02006231    1.00   0.00  0.00  0.00  0.99  0.00  0.01  0.00  0.00  0.00
  WS02006231WS02006230    1.00   0.01  0.00  0.00  0.34  0.00  0.66  0.00  0.00  0.00
  WS02006230WS02006229    1.00   0.00  0.00  0.00  0.98  0.00  0.00  0.02  0.01  0.00
  WS02006228WS02006109    1.00   0.00  0.00  0.00  0.99  0.00  0.00  0.00  0.01  0.00
  WS02006116WS02004401    1.00   0.02  0.00  0.00  0.98  0.00  0.00  0.00  0.00  0.00
  WS02006115WS02006116    1.00   0.02  0.00  0.00  0.96  0.00  0.00  0.01  0.01  0.00
  WS02006113WS02006111    1.00   0.02  0.00  0.00  0.00  0.98  0.00  0.00  0.15  0.00
  WS02006112WS02006115    1.00   0.02  0.00  0.00  0.98  0.00  0.00  0.00  0.00  0.00
  WS02006111WS02006112    1.00   0.02  0.00  0.00  0.98  0.00  0.00  0.00  0.98  0.00
  WS02006110WS02006113    1.00   0.02  0.00  0.00  0.98  0.00  0.00  0.00  0.00  0.00
  WS02006109WS02006110    1.00   0.00  0.02  0.00  0.98  0.00  0.00  0.00  0.00  0.00
  WS02004411WS02004412    1.00   0.06  0.00  0.00  0.94  0.00  0.00  0.00  0.00  0.00
  WS02004401WS02004402    1.00   0.02  0.00  0.00  0.98  0.00  0.00  0.00  0.00  0.00
  WS02004413WS02003067    1.00   0.06  0.01  0.00  0.00  0.00  0.93  0.00  0.00  0.00
  WS02004412WS02004413    1.00   0.06  0.00  0.00  0.94  0.00  0.00  0.00  0.03  0.00
  WS02004410WS02004411    1.00   0.06  0.00  0.00  0.94  0.00  0.00  0.00  0.01  0.00
  WS02004409WS02004410    1.00   0.06  0.00  0.00  0.94  0.00  0.00  0.00  0.00  0.00
  WS02004407WS02004409    1.00   0.06  0.00  0.00  0.94  0.00  0.00  0.00  0.80  0.00
  WS02004406WS02004407    1.00   0.00  0.05  0.00  0.94  0.00  0.00  0.00  0.00  0.00
  WS02004405WS02004406    1.00   0.00  0.00  0.00  1.00  0.00  0.00  0.00  0.02  0.00
  WS02004404WS02004405    1.00   0.00  0.00  0.00  1.00  0.00  0.00  0.00  0.00  0.00
  WS02004403WS02004404    1.00   0.00  0.02  0.00  0.98  0.00  0.00  0.00  0.02  0.00
  WS02004402WS02004403    1.00   0.02  0.00  0.00  0.98  0.00  0.00  0.00  0.00  0.00
  WS02004139WS02001211    1.00   0.00  0.00  0.00  0.99  0.00  0.01  0.00  0.00  0.00
  WS02004138WS02004139    1.00   0.00  0.00  0.00  0.98  0.01  0.00  0.00  1.00  0.00
  WS02003067WS02003066    1.00   0.07  0.01  0.00  0.92  0.00  0.00  0.00  0.00  0.00
  WS02001213WS02003059    1.00   0.00  0.01  0.00  0.99  0.00  0.00  0.00  0.00  0.00
  WS02001212WS02001213    1.00   0.01  0.00  0.00  0.80  0.00  0.19  0.00  0.00  0.00
  WS02001211WS02001212    1.00   0.00  0.01  0.00  0.99  0.00  0.00  0.00  0.00  0.00
  WS02003072WS02003073    1.00   0.00  0.00  0.00  0.00  0.00  0.00  1.00  0.00  0.00
  WS02003069WS02003072    1.00   0.00  0.00  0.00  0.99  0.01  0.00  0.00  0.28  0.00
  WS02003060WS02003069    1.00   0.00  0.00  0.00  0.99  0.01  0.00  0.00  0.16  0.00
  WS02003059WS02003060    1.00   0.00  0.00  0.00  0.99  0.01  0.00  0.00  0.01  0.00
  HS02004901HS02004770    1.00   0.04  0.00  0.00  0.96  0.00  0.00  0.00  0.03  0.00
  HS02004876HS02004881    1.00   0.02  0.00  0.00  0.98  0.00  0.00  0.00  0.00  0.00
  HS02004870HS02004876    1.00   0.01  0.00  0.00  0.99  0.00  0.00  0.00  0.95  0.00
  HS02004842HS02004848    1.00   0.00  0.04  0.00  0.95  0.00  0.00  0.00  0.71  0.00
  HS02004837HS02004842    1.00   0.00  0.00  0.00  0.99  0.01  0.00  0.00  0.11  0.00
  HS02004830HS02004837    1.00   0.00  0.00  0.00  1.00  0.00  0.00  0.00  0.99  0.00
  HS02004824HS02004830    1.00   0.00  0.00  0.00  1.00  0.00  0.00  0.00  0.00  0.00
  HS02004817HS02004824    1.00   0.00  0.00  0.00  1.00  0.00  0.00  0.00  1.00  0.00
  HS02004770HS02004777    1.00   0.00  0.04  0.00  0.96  0.00  0.00  0.00  0.08  0.00
  HS02004799HS02004480    1.00   0.00  0.02  0.00  0.94  0.00  0.03  0.00  0.00  0.00
  HS02004792HS02004799    1.00   0.00  0.00  0.00  0.98  0.02  0.00  0.00  0.98  0.00
  HS02004788HS02004792    1.00   0.00  0.00  0.00  0.98  0.02  0.00  0.00  0.98  0.00
  HS02004785HS02004788    1.00   0.00  0.00  0.00  1.00  0.00  0.00  0.00  0.00  0.00
  HS02004777HS02004785    1.00   0.00  0.00  0.00  1.00  0.00  0.00  0.00  0.21  0.00
  HS02004480HS02004478    1.00   0.05  0.00  0.00  0.76  0.00  0.00  0.19  0.00  0.00
  HS02004479HS02004480    1.00   0.02  0.00  0.00  0.98  0.00  0.00  0.00  0.16  0.00
  HS02004862HS02004870    1.00   0.00  0.00  0.00  1.00  0.00  0.00  0.00  0.05  0.00
  HS02004848HS02004852    1.00   0.05  0.00  0.00  0.95  0.00  0.00  0.00  0.70  0.00
  HS02004856HS02004862    1.00   0.00  0.07  0.00  0.93  0.00  0.00  0.00  0.73  0.00
  HS02004852HS02004856    1.00   0.04  0.01  0.00  0.95  0.00  0.00  0.00  0.82  0.00
  HS02004802HS02004478    1.00   0.04  0.01  0.00  0.95  0.00  0.00  0.00  0.00  0.00
  HS02004478WS02006287    1.00   0.05  0.00  0.00  0.94  0.00  0.00  0.00  0.81  0.00
  HS02004817HS02004807    1.00   0.00  0.04  0.00  0.96  0.00  0.00  0.00  0.00  0.00
  HS02004807HS02004802    1.00   0.04  0.00  0.00  0.95  0.00  0.00  0.00  0.01  0.00
  YS02001759YS02001757    1.00   0.00  0.00  0.00  1.00  0.00  0.00  0.00  0.17  0.00
  YS02001762YS02001759    1.00   0.00  0.00  0.00  1.00  0.00  0.00  0.00  0.05  0.00
  YS02001765YS02001762    1.00   0.00  0.00  0.00  1.00  0.00  0.00  0.00  0.23  0.00
  YS02001770YS02001767    1.00   0.00  0.00  0.00  1.00  0.00  0.00  0.00  0.00  0.00
  YS02001774YS02001770    1.00   0.00  0.05  0.00  0.95  0.00  0.00  0.00  0.07  0.00
  YS02001779YS02001774    1.00   0.00  0.00  0.00  1.00  0.00  0.00  0.00  0.28  0.00
  YS02001649YS02001757    1.00   0.00  0.00  0.00  1.00  0.00  0.00  0.00  0.19  0.00
  YS02001767YS02001765    1.00   0.00  0.00  0.00  1.00  0.00  0.00  0.00  0.01  0.00
  YS02006561YS02001783    1.00   0.07  0.00  0.00  0.00  0.93  0.00  0.00  0.72  0.00
  YS02001783YS02001784    1.00   0.00  0.07  0.00  0.93  0.00  0.00  0.00  0.10  0.00
  YS02001784YS02001785    1.00   0.00  0.00  0.00  1.00  0.00  0.00  0.00  0.26  0.00
  YS02001788YS02001790    1.00   0.00  0.00  0.00  0.08  0.92  0.00  0.00  0.99  0.00
  YS02001790YS02001791    1.00   0.00  0.00  0.00  0.02  0.98  0.00  0.00  0.36  0.00
  YS02001791YS02001793    1.00   0.00  0.00  0.00  0.00  1.00  0.00  0.00  0.00  0.00
  YS02001910YS02001907    1.00   0.00  0.00  0.00  0.98  0.00  0.00  0.02  0.13  0.00
  YS02001786YS02001788    1.00   0.00  0.00  0.00  0.09  0.91  0.00  0.00  0.00  0.00
  YS02001915YS02001910    1.00   0.00  0.00  0.00  1.00  0.00  0.00  0.00  0.25  0.00
  YS02001918YS02001915    1.00   0.00  0.01  0.00  0.98  0.01  0.00  0.00  0.81  0.00
  YS02001923YS02001920    1.00   0.00  0.00  0.00  1.00  0.00  0.00  0.00  1.00  0.00
  YS02001926YS02001923    1.00   0.00  0.03  0.00  0.00  0.00  0.97  0.00  0.00  0.00
  YS02001929YS02001926    1.00   0.00  0.04  0.00  0.96  0.00  0.00  0.00  0.86  0.00
  YS02001920YS02001918    1.00   0.00  0.01  0.00  0.99  0.00  0.00  0.00  0.00  0.00
  YS02001629YS02163301    1.00   0.06  0.00  0.00  0.93  0.00  0.00  0.00  0.00  0.00
  YS02001619YS02001622    1.00   0.04  0.00  0.00  0.96  0.00  0.00  0.00  0.00  0.00
  YS02001622YS02001625    1.00   0.04  0.00  0.00  0.96  0.00  0.00  0.00  0.14  0.00
  YS02001625YS02001629    1.00   0.05  0.03  0.00  0.91  0.00  0.01  0.00  0.00  0.00
  YS02163301YS02001633    1.00   0.00  0.06  0.00  0.94  0.00  0.00  0.00  0.00  0.00
  YS02163601YS02164001    1.00   0.00  0.03  0.00  0.97  0.00  0.00  0.00  0.00  0.00
  YS02164001YS02001641    1.00   0.01  0.02  0.00  0.97  0.00  0.00  0.00  0.07  0.00
  YS02001641YS02001644    1.00   0.00  0.01  0.00  0.99  0.00  0.00  0.00  0.00  0.00
  YS02001647YS02001649    1.00   0.00  0.07  0.00  0.93  0.00  0.00  0.00  0.01  0.00
  YS02006553YS02006556    1.00   0.02  0.00  0.00  0.98  0.00  0.00  0.00  0.03  0.00
  YS02006556YS02006558    1.00   0.00  0.01  0.00  0.99  0.00  0.00  0.00  0.00  0.00
  YSB6556YSB1171          1.00   0.03  0.02  0.00  0.96  0.00  0.00  0.00  0.00  0.00
  YS02001907YS02006553    1.00   0.00  0.02  0.00  0.98  0.00  0.00  0.00  0.00  0.00
  YS02006558YS02006561    1.00   0.07  0.00  0.00  0.00  0.93  0.00  0.00  0.71  0.00
  YS02001633YS02163601    1.00   0.00  0.01  0.00  0.99  0.00  0.00  0.00  0.20  0.00
  YS02001644YS02001647    1.00   0.00  0.07  0.00  0.93  0.00  0.00  0.00  0.00  0.00
  YS02001745YS02001748    1.00   0.00  0.00  0.00  0.00  0.00  0.00  1.00  0.00  0.00
  YS02001748YS02001751    1.00   0.00  0.00  0.00  0.97  0.03  0.00  0.00  0.73  0.00
  YS02001751YS02001754    1.00   0.00  0.00  0.00  0.92  0.00  0.00  0.08  0.02  0.00
  YS02001754YS02001757    1.00   0.00  0.00  0.00  0.99  0.01  0.00  0.00  0.27  0.00
  YS02001882YS02001884    1.00   0.06  0.00  0.00  0.94  0.00  0.00  0.00  0.00  0.00
  YS02001884YS02001887    1.00   0.03  0.01  0.00  0.96  0.00  0.00  0.00  0.00  0.00
  YS02001890YS02001895    1.00   0.00  0.06  0.00  0.93  0.00  0.00  0.00  0.00  0.00
  YS02001895YS02001898    1.00   0.07  0.00  0.00  0.92  0.00  0.01  0.00  0.00  0.00
  YS02001898YS02001901    1.00   0.06  0.01  0.00  0.93  0.00  0.00  0.00  0.02  0.00
  YS02001901YS02001904    1.00   0.06  0.00  0.00  0.94  0.00  0.00  0.00  0.00  0.00
  YS02001904YS02001907    1.00   0.00  0.06  0.00  0.94  0.00  0.00  0.00  0.00  0.00
  YS02001887YS02001890    1.00   0.00  0.00  0.00  0.98  0.00  0.02  0.00  0.00  0.00
  YS02001652YS02001649    1.00   0.00  0.00  0.00  1.00  0.00  0.00  0.00  0.27  0.00
  YS02001655YS02001652    1.00   0.00  0.00  0.00  0.92  0.00  0.00  0.08  0.03  0.00
  YS02001658YS02001655    1.00   0.00  0.06  0.00  0.92  0.03  0.00  0.00  0.79  0.00
  YS02001661YS02001658    1.00   0.06  0.00  0.00  0.00  0.94  0.00  0.00  0.72  0.00
  YS02001664YS02001661    1.00   0.04  0.00  0.00  0.96  0.00  0.00  0.00  0.86  0.00
  YSB1154YSB6556          1.00   0.04  0.00  0.00  0.96  0.00  0.00  0.00  0.02  0.00
  YSB1174YSB1171          1.00   0.03  0.01  0.00  0.96  0.00  0.00  0.00  0.00  0.00
  YSB1171HS02004479       1.00   0.02  0.00  0.00  0.97  0.00  0.00  0.00  0.13  0.00
  HS02004881HS02006253    1.00   0.03  0.00  0.00  0.68  0.01  0.00  0.28  0.47  0.00
  YS02001793JiankangQianchi    1.00   0.00  0.00  0.00  0.05  0.94  0.00  0.00  0.13  0.00
  YS02001757CaochengTiaoxuchi    1.00   0.00  0.09  0.00  0.91  0.00  0.00  0.00  0.00  0.00
  WSF200WS02003060        1.00   0.00  0.08  0.00  0.75  0.17  0.00  0.00  0.35  0.00
  1                       1.00   0.00  0.00  0.00  0.00  1.00  0.00  0.00  0.41  0.00
  2                       1.00   0.84  0.00  0.00  0.00  0.16  0.00  0.00  0.05  0.00
  3                       1.00   0.40  0.00  0.00  0.00  0.60  0.00  0.00  0.21  0.00
  4                       1.00   1.00  0.00  0.00  0.00  0.00  0.00  0.00  0.00  0.00
  
  
  *************************
  Conduit Surcharge Summary
  *************************
  
  ----------------------------------------------------------------------------
                                                           Hours        Hours 
                         --------- Hours Full --------   Above Full   Capacity
  Conduit                Both Ends  Upstream  Dnstream   Normal Flow   Limited
  ----------------------------------------------------------------------------
  WS02006229WS02006228        0.53      0.61      0.53      2.51         0.53
  WS02006256WS02006235        5.48      5.48      7.25      2.51         0.01
  WS02006252WS02006251        0.35      0.35      1.04      0.84         0.01
  WS02006251WS02006249        0.01      0.01      0.01      0.32         0.01
  WS02006249WS02006248        0.01      0.01      0.01      2.82         0.01
  WS02006247WS02006245        0.01      0.01      0.01      3.83         0.01
  WS02006243WS02006242        0.01      0.01      0.13      0.01         0.01
  WS02006242WS02006240        0.01      0.01      0.36      1.00         0.01
  WS02006240WS02006239        0.01      0.01      0.06      0.05         0.01
  WS02006239WS02006238        0.30      0.30      0.36      0.05         0.01
  WS02006238WS02006235        0.29      0.29      0.55      0.01         0.01
  WS02006235WS02006234        0.01      0.01      0.19      5.47         0.01
  WS02006234WS02006232        0.08      0.08      0.62      0.01         0.01
  WS02006232WS02006231        0.01      0.01      0.62      0.01         0.01
  WS02006231WS02006230        0.01      0.01      0.01      5.51         0.01
  WS02006230WS02006229        1.34      2.12      1.34      5.61         1.34
  WS02006228WS02006109        0.57      0.97      0.57      4.14         0.57
  WS02006111WS02006112        0.01      0.01      2.86      0.01         0.01
  WS02006110WS02006113        0.01      0.01      0.73      0.01         0.01
  WS02006109WS02006110        0.01      0.01      0.97      0.01         0.01
  WS02004404WS02004405        0.01      0.01      0.01      5.48         0.01
  WS02003072WS02003073        0.01      0.01      0.01      4.46         0.01
  YS02001793JiankangQianchi        0.01      0.01      0.04      0.01         0.01
  3                           0.01      0.01      0.01      0.01         0.01
  
  
  ***************
  Pumping Summary
  ***************
  
  ---------------------------------------------------------------------------------------------------------
                                                  Min       Avg       Max     Total     Power    % Time Off
                        Percent   Number of      Flow      Flow      Flow    Volume     Usage    Pump Curve
  Pump                 Utilized   Start-Ups       LPS       LPS       LPS  10^6 ltr     Kw-hr    Low   High
  ---------------------------------------------------------------------------------------------------------
  CC-Pump-1               53.62           7      0.00    108.71    200.00     1.571      6.84    0.0  100.0
  CC-Pump-2               57.88           6      0.00    119.01    200.00     1.840      7.96    0.0  100.0
  JK-Pump-1               82.97           7      0.00     84.68    300.00     1.447     27.78    0.0    0.0
  JK-Pump-2               82.97           5      0.00     91.83    300.00     1.572     30.24    0.0    0.0
  XR-Pump-1               78.72           5      0.00     78.68     95.00     1.796     19.95    0.0    0.0
  XR-Pump-2               74.45           6      0.00     61.55     95.00     1.368     16.32    0.0    0.0
  XR-Pump-3               80.85           4      0.00     78.41     95.00     1.767     19.90    0.0    0.0
  XR-Pump-4               78.71           6      0.00     63.83     95.00     1.454     17.03    0.0    0.0
  

  Analysis begun on:  Tue Dec 21 11:40:52 2021
  Analysis ended on:  Tue Dec 21 11:40:54 2021
  Total elapsed time: 00:00:02