
  EPA STORM WATER MANAGEMENT MODEL - VERSION 5.1 (Build 5.3.0.dev0)
  --------------------------------------------------------------

  WARNING 04: minimum elevation drop used for Conduit WS02004404WS02004405
  WARNING 03: negative offset ignored for Link YS02001904YS02001907
  
  *********************************************************
  NOTE: The summary statistics displayed in this report are
  based on results found at every computational time step,  
  not just on results from each reporting time step.
  *********************************************************
  
  ****************
  Analysis Options
  ****************
  Flow Units ............... LPS
  Process Models:
    Rainfall/Runoff ........ YES
    RDII ................... NO
    Snowmelt ............... NO
    Groundwater ............ NO
    Flow Routing ........... YES
    Ponding Allowed ........ NO
    Water Quality .......... NO
  Infiltration Method ...... HORTON
  Flow Routing Method ...... DYNWAVE
  Surcharge Method ......... EXTRAN
  Starting Date ............ 08/28/2015 08:00:00
  Ending Date .............. 08/28/2015 15:50:00
  Antecedent Dry Days ...... 8.0
  Report Time Step ......... 00:01:00
  Wet Time Step ............ 00:01:00
  Dry Time Step ............ 00:01:00
  Routing Time Step ........ 5.00 sec
  Variable Time Step ....... YES
  Maximum Trials ........... 8
  Number of Threads ........ 4
  Head Tolerance ........... 0.001500 m
  
  
  **************************        Volume         Depth
  Runoff Quantity Continuity     hectare-m            mm
  **************************     ---------       -------
  Total Precipitation ......         2.663         5.830
  Evaporation Loss .........         0.000         0.000
  Infiltration Loss ........         0.668         1.463
  Surface Runoff ...........         1.113         2.436
  Final Storage ............         0.882         1.932
  Continuity Error (%) .....        -0.018
  
  
  **************************        Volume        Volume
  Flow Routing Continuity        hectare-m      10^6 ltr
  **************************     ---------     ---------
  Dry Weather Inflow .......         0.616         6.165
  Wet Weather Inflow .......         1.112        11.120
  Groundwater Inflow .......         0.000         0.000
  RDII Inflow ..............         0.000         0.000
  External Inflow ..........         0.102         1.024
  External Outflow .........         1.528        15.284
  Flooding Loss ............         0.059         0.591
  Evaporation Loss .........         0.000         0.000
  Exfiltration Loss ........         0.000         0.000
  Initial Stored Volume ....         0.076         0.761
  Final Stored Volume ......         0.385         3.854
  Continuity Error (%) .....        -3.468
  
  
  *************************
  Highest Continuity Errors
  *************************
  Node HS02004842 (28.71%)
  Node YS02001884 (23.16%)
  Node JK-storage (-18.58%)
  Node YS02001774 (14.94%)
  Node YSB1171 (7.07%)
  
  
  ***************************
  Time-Step Critical Elements
  ***************************
  Link WS02006252WS02006251 (54.63%)
  Link 3 (30.43%)
  Link WS02006238WS02006235 (6.48%)
  Link WS02006280WS02006229 (2.34%)
  Link 2 (1.96%)
  
  
  ********************************
  Highest Flow Instability Indexes
  ********************************
  Link WS02006113WS02006111 (42)
  Link WS02006111WS02006112 (21)
  Link YS02006558YS02006561 (9)
  Link YS02001644YS02001647 (4)
  Link YS02001629YS02163301 (4)
  
  
  *************************
  Routing Time Step Summary
  *************************
  Minimum Time Step           :     0.43 sec
  Average Time Step           :     0.95 sec
  Maximum Time Step           :     5.00 sec
  Percent in Steady State     :    -0.00
  Average Iterations per Step :     2.44
  Percent Not Converging      :     5.15
  
  
  ***************************
  Subcatchment Runoff Summary
  ***************************
  
  ------------------------------------------------------------------------------------------------------------------------------
                            Total      Total      Total      Total     Imperv       Perv      Total       Total     Peak  Runoff
                           Precip      Runon       Evap      Infil     Runoff     Runoff     Runoff      Runoff   Runoff   Coeff
  Subcatchment                 mm         mm         mm         mm         mm         mm         mm    10^6 ltr      LPS
  ------------------------------------------------------------------------------------------------------------------------------
  sub0                       5.83       0.00       0.00       0.41       4.16       0.00       4.16        0.00     1.37   0.713
  sub1                       5.83       0.00       0.00       0.64       3.93       0.00       3.93        0.03     7.19   0.675
  sub2                       5.83       0.00       0.00       2.16       2.77       0.00       2.77        0.03     6.37   0.475
  sub3                       5.83       0.00       0.00       2.16       2.73       0.00       2.73        0.06    13.12   0.469
  sub4                       5.83       0.00       0.00       0.64       3.80       0.00       3.80        0.08    14.74   0.651
  sub5                       5.83       0.00       0.00       0.41       4.11       0.00       4.11        0.05    12.79   0.705
  sub7                       5.83       0.00       0.00       0.52       4.05       0.00       4.05        0.01     4.51   0.695
  sub8                       5.83       0.00       0.00       0.52       4.04       0.00       4.04        0.03     7.96   0.693
  sub9                       5.83       0.00       0.00       0.52       4.04       0.00       4.04        0.02     5.90   0.693
  sub10                      5.83       0.00       0.00       0.47       4.07       0.00       4.07        0.04    12.76   0.699
  sub11                      5.83       0.00       0.00       0.47       4.09       0.00       4.09        0.05    14.97   0.701
  sub12                      5.83       0.00       0.00       0.76       3.88       0.00       3.88        0.03    12.68   0.666
  sub14                      5.83       0.00       0.00       0.52       4.04       0.00       4.04        0.04    11.53   0.693
  sub15                      5.83       0.00       0.00       1.75       3.10       0.00       3.10        0.05    15.64   0.532
  sub16                      5.83       0.00       0.00       1.92       2.99       0.00       2.99        0.03    11.14   0.512
  sub17                      5.83       0.00       0.00       1.87       3.03       0.00       3.03        0.03     9.00   0.520
  sub22                      5.83       0.00       0.00       2.51       2.53       0.00       2.53        0.16    51.19   0.435
  sub23                      5.83       0.00       0.00       2.16       2.80       0.00       2.80        0.13    43.62   0.481
  sub60                      5.83       0.00       0.00       0.70       2.71       0.00       2.71        0.82    76.21   0.465
  sub61                      5.83       0.00       0.00       0.99       2.90       0.00       2.90        0.90    95.28   0.498
  sub62                      5.83       0.00       0.00       0.47       3.11       0.00       3.11        0.96    97.52   0.534
  sub63                      5.83       0.00       0.00       1.69       2.59       0.00       2.59        0.78    88.77   0.444
  sub64                      5.83       0.00       0.00       0.87       2.59       0.00       2.59        0.79    72.36   0.444
  sub65                      5.83       0.00       0.00       0.76       2.62       0.00       2.62        0.81    73.39   0.450
  sub66                      5.83       0.00       0.00       1.69       2.26       0.00       2.26        0.69    66.37   0.388
  sub67                      5.83       0.00       0.00       0.47       3.43       0.00       3.43        1.06   124.64   0.588
  sub68                      5.83       0.00       0.00       0.82       3.09       0.00       3.09        0.95   105.22   0.530
  sub69                      5.83       0.00       0.00       0.87       3.34       0.00       3.34        0.78   104.02   0.573
  sub70                      5.83       3.41       0.00       3.14       4.09       0.00       4.09        0.94    84.08   0.442
  sub71                      5.83       0.00       0.00       0.47       2.97       0.00       2.97        0.70    68.20   0.510
  sub72                      5.83       0.00       0.00       0.41       2.09       0.00       2.09        0.43    31.96   0.358
  sub73                      5.83       3.98       0.00       3.33       4.15       0.00       4.15        0.97    72.10   0.423
  sub74                      5.83       0.00       0.00       4.37       1.01       0.00       1.01        0.40    57.95   0.173
  
  
  ******************
  Node Depth Summary
  ******************
  
  ---------------------------------------------------------------------------------
                                 Average  Maximum  Maximum  Time of Max    Reported
                                   Depth    Depth      HGL   Occurrence   Max Depth
  Node                 Type       Meters   Meters   Meters  days hr:min      Meters
  ---------------------------------------------------------------------------------
  WS02001211           JUNCTION     0.63     0.78     5.62     0  02:51        0.78
  WS02001212           JUNCTION     0.36     0.49     5.56     0  02:51        0.49
  WS02001213           JUNCTION     0.58     0.74     5.51     0  02:51        0.74
  WS02003069           JUNCTION     0.41     0.57     5.15     0  02:53        0.57
  WS02003072           JUNCTION     0.47     0.63     5.00     0  02:53        0.63
  WS02003073           JUNCTION     0.28     0.38     4.45     0  02:54        0.38
  WS02003060           JUNCTION     0.36     0.50     5.43     0  02:52        0.50
  WS02003066           JUNCTION     0.22     0.29     5.85     0  02:46        0.29
  WS02003059           JUNCTION     0.64     0.80     5.48     0  02:52        0.80
  WS02003067           JUNCTION     0.55     0.69     6.01     0  02:46        0.69
  WS02004401           JUNCTION     0.64     0.83     6.83     0  02:43        0.83
  WS02004402           JUNCTION     0.67     0.86     6.82     0  02:43        0.86
  WS02004403           JUNCTION     0.70     0.88     6.81     0  02:44        0.88
  WS02004404           JUNCTION     0.77     0.95     6.80     0  02:44        0.95
  WS02004406           JUNCTION     0.78     0.94     6.77     0  02:44        0.94
  WS02004409           JUNCTION     0.46     0.65     6.42     0  02:45        0.65
  WS02004410           JUNCTION     0.48     0.67     6.39     0  02:45        0.67
  WS02004411           JUNCTION     0.50     0.68     6.36     0  02:45        0.68
  WS02004412           JUNCTION     0.51     0.68     6.32     0  02:46        0.68
  WS02004413           JUNCTION     0.67     0.84     6.31     0  02:46        0.84
  WS02004405           JUNCTION     0.77     0.94     6.79     0  02:44        0.94
  WS02006109           JUNCTION     0.72     0.94     7.56     0  02:40        0.94
  WS02006110           JUNCTION     0.72     0.90     7.49     0  02:40        0.90
  WS02006111           JUNCTION     0.21     0.28     6.99     0  02:42        0.28
  WS02006112           JUNCTION     0.81     1.02     6.91     0  02:45        1.02
  WS02006113           JUNCTION     0.32     0.44     7.33     0  02:41        0.44
  WS02006115           JUNCTION     0.53     0.73     6.87     0  02:43        0.73
  WS02006116           JUNCTION     0.61     0.81     6.85     0  02:43        0.81
  WS02006230           JUNCTION     0.68     0.98     7.73     0  02:41        0.98
  WS02006231           JUNCTION     0.45     0.66     7.79     0  02:41        0.66
  WS02006232           JUNCTION     0.58     0.80     7.84     0  02:41        0.80
  WS02006234           JUNCTION     0.50     0.74     7.90     0  02:41        0.74
  WS02006235           JUNCTION     0.53     0.78     7.94     0  02:41        0.78
  WS02006238           JUNCTION     0.56     0.80     7.95     0  02:41        0.80
  WS02006240           JUNCTION     0.45     0.73     8.02     0  02:41        0.73
  WS02006242           JUNCTION     0.51     0.80     8.07     0  02:41        0.80
  WS02006243           JUNCTION     0.39     0.69     8.11     0  02:41        0.69
  WS02006245           JUNCTION     0.37     0.66     8.15     0  02:41        0.66
  WS02006247           JUNCTION     0.39     0.67     8.17     0  02:41        0.67
  WS02006248           JUNCTION     0.34     0.60     8.19     0  02:40        0.60
  WS02006249           JUNCTION     0.38     0.62     8.21     0  02:40        0.62
  WS02006239           JUNCTION     0.51     0.78     7.99     0  02:41        0.78
  WS02006251           JUNCTION     0.37     0.64     8.31     0  02:40        0.64
  WS02006252           JUNCTION     0.33     0.59     8.83     0  04:50        0.58
  WS02006253           JUNCTION     0.40     0.67     8.32     0  02:40        0.67
  WS02006256           JUNCTION     0.99     1.20     8.14     0  05:40        1.20
  WS02004138           JUNCTION     0.14     0.19     7.44     0  00:20        0.19
  WS02004407           JUNCTION     0.21     0.29     6.60     0  02:44        0.29
  WS02006228           JUNCTION     0.71     0.97     7.63     0  02:40        0.97
  WS02006229           JUNCTION     0.68     0.97     7.66     0  02:40        0.97
  WS02006280           JUNCTION     0.05     0.14     8.41     0  02:19        0.14
  WS02006284           JUNCTION     0.35     0.48     8.88     0  02:19        0.48
  WS02006287           JUNCTION     0.08     0.21     9.16     0  02:19        0.21
  WSF200               JUNCTION     0.20     0.30     5.53     0  02:45        0.30
  HS02004901           JUNCTION     0.11     0.23    10.05     0  02:16        0.23
  HS02004881           JUNCTION     0.01     0.02     9.05     0  02:18        0.02
  HS02004876           JUNCTION     0.04     0.10     9.13     0  02:17        0.10
  HS02004870           JUNCTION     0.01     0.04     9.33     0  02:19        0.04
  HS02004862           JUNCTION     0.01     0.05     9.43     0  02:20        0.05
  HS02004856           JUNCTION     0.07     0.10     9.53     0  02:19        0.10
  HS02004852           JUNCTION     0.01     0.03     9.54     0  02:20        0.03
  HS02004848           JUNCTION     0.01     0.03     9.63     0  02:19        0.03
  HS02004842           JUNCTION     0.33     0.36     9.63     0  02:18        0.36
  HS02004837           JUNCTION     0.03     0.05     9.63     0  02:18        0.05
  HS02004830           JUNCTION     0.04     0.06     9.53     0  02:19        0.06
  HS02004824           JUNCTION     0.02     0.04     9.44     0  02:22        0.04
  HS02004817           JUNCTION     0.42     0.52     9.37     0  02:19        0.52
  HS02004807           JUNCTION     0.11     0.20     9.37     0  02:19        0.20
  HS02004802           JUNCTION     0.15     0.23     9.36     0  02:19        0.23
  HS02004799           JUNCTION     0.10     0.25     9.46     0  02:17        0.25
  HS02004792           JUNCTION     0.02     0.10     9.62     0  02:16        0.10
  HS02004788           JUNCTION     0.02     0.07     9.97     0  02:17        0.07
  HS02004785           JUNCTION     0.03     0.13    10.03     0  02:17        0.13
  HS02004777           JUNCTION     0.13     0.25    10.05     0  02:16        0.25
  HS02004770           JUNCTION     0.10     0.22    10.05     0  02:16        0.22
  HS02004480           JUNCTION     0.06     0.20     9.44     0  02:17        0.20
  HS02004479           JUNCTION     0.10     0.23     9.44     0  02:17        0.23
  HS02004478           JUNCTION     0.05     0.12     9.35     0  02:18        0.12
  YS02001745           JUNCTION     0.08     0.16     7.67     0  04:31        0.15
  YS02001748           JUNCTION     0.40     0.58     7.65     0  04:31        0.57
  YS02001751           JUNCTION     0.58     0.78     7.66     0  04:24        0.78
  YS02001754           JUNCTION     0.82     1.10     7.71     0  04:12        1.05
  YS02001762           JUNCTION     1.02     1.31     7.71     0  04:26        1.26
  YS02001765           JUNCTION     0.97     1.28     7.73     0  04:26        1.21
  YS02001767           JUNCTION     0.94     1.25     7.74     0  04:26        1.18
  YS02001770           JUNCTION     0.93     1.24     7.73     0  04:25        1.18
  YS02001774           JUNCTION     1.00     1.30     7.72     0  04:28        1.26
  YS02001779           JUNCTION     0.75     1.04     7.73     0  04:28        1.00
  YS02001882           JUNCTION     0.28     0.45     7.17     0  02:54        0.45
  YS02001884           JUNCTION     0.38     0.55     7.17     0  02:54        0.55
  YS02001759           JUNCTION     1.05     1.33     7.69     0  04:26        1.30
  YS02001887           JUNCTION     0.45     0.63     7.17     0  02:54        0.63
  YS02001890           JUNCTION     0.48     0.66     7.17     0  02:56        0.66
  YS02001898           JUNCTION     0.26     0.42     7.15     0  02:55        0.42
  YS02001901           JUNCTION     0.37     0.54     7.15     0  02:58        0.54
  YS02001904           JUNCTION     0.35     0.52     7.15     0  02:57        0.52
  YS02001907           JUNCTION     0.68     0.86     7.15     0  02:56        0.86
  YS02001910           JUNCTION     0.47     0.64     7.15     0  02:56        0.64
  YS02001915           JUNCTION     0.27     0.43     7.15     0  02:56        0.43
  YS02001918           JUNCTION     0.08     0.10     7.16     0  03:03        0.10
  YS02001619           JUNCTION     0.54     0.74     7.67     0  04:20        0.73
  YS02001629           JUNCTION     0.88     1.13     7.68     0  04:23        1.13
  YS02001641           JUNCTION     0.99     1.37     7.80     0  04:24        1.23
  YS02001644           JUNCTION     0.99     1.37     7.80     0  04:24        1.24
  YS02001652           JUNCTION     0.84     1.26     7.85     0  04:00        1.11
  YS02001655           JUNCTION     0.60     0.85     7.70     0  04:27        0.84
  YS02001920           JUNCTION     0.17     0.20     7.21     0  03:02        0.20
  YS02001923           JUNCTION     0.06     0.08     7.34     0  03:02        0.08
  YS02001926           JUNCTION     0.14     0.17     7.62     0  03:01        0.17
  YS02001929           JUNCTION     0.06     0.09     7.78     0  03:01        0.09
  YS02001658           JUNCTION     0.34     0.53     7.67     0  04:27        0.52
  YS02001661           JUNCTION     0.16     0.29     7.70     0  04:26        0.29
  YS02001664           JUNCTION     0.07     0.11     8.04     0  02:48        0.11
  YS02001622           JUNCTION     0.56     0.76     7.67     0  04:25        0.76
  YS02001633           JUNCTION     0.97     1.31     7.76     0  04:24        1.21
  YS02001649           JUNCTION     1.03     1.34     7.73     0  04:24        1.28
  YS02001757           JUNCTION     1.15     1.43     7.69     0  04:26        1.39
  YS02001895           JUNCTION     0.25     0.41     7.16     0  02:56        0.41
  YS02001625           JUNCTION     0.84     1.09     7.70     0  04:18        1.06
  YS02163301           JUNCTION     0.91     1.21     7.73     0  04:24        1.16
  YS02163601           JUNCTION     1.03     1.39     7.78     0  04:24        1.27
  YS02164001           JUNCTION     0.97     1.34     7.79     0  04:24        1.21
  YS02001647           JUNCTION     0.82     1.18     7.79     0  04:24        1.07
  YSB1154              JUNCTION     0.24     0.38     9.44     0  02:17        0.38
  YSB6556              JUNCTION     0.13     0.27     9.44     0  02:17        0.27
  YSB1174              JUNCTION     0.19     0.33     9.44     0  02:17        0.33
  YSB1171              JUNCTION     0.39     0.53     9.44     0  02:17        0.53
  YS02006553           JUNCTION     0.68     0.87     7.15     0  02:56        0.87
  YS02006561           JUNCTION     0.14     0.22     6.88     0  02:57        0.22
  YS02006556           JUNCTION     0.66     0.83     7.15     0  02:57        0.83
  YS02006558           JUNCTION     0.70     0.88     7.15     0  02:55        0.88
  YS02001783           JUNCTION     0.24     0.40     6.54     0  02:55        0.40
  YS02001784           JUNCTION     0.27     0.43     6.50     0  02:55        0.43
  YS02001786           JUNCTION     0.23     0.36     6.39     0  02:56        0.36
  YS02001788           JUNCTION     0.17     0.27     6.25     0  02:56        0.27
  YS02001790           JUNCTION     0.21     0.33     5.98     0  02:56        0.33
  YS02001791           JUNCTION     0.14     0.22     5.69     0  02:56        0.22
  YS02001793           JUNCTION     0.08     0.17     5.00     0  05:24        0.17
  WS02004139           JUNCTION     0.57     0.72     5.63     0  02:50        0.72
  WSC                  OUTFALL      0.28     0.38     1.05     0  02:54        0.38
  3                    OUTFALL      0.07     0.20     6.20     0  05:40        0.20
  4                    OUTFALL      0.01     0.12     7.12     0  02:40        0.12
  5                    OUTFALL      0.00     0.00     5.00     0  00:00        0.00
  JK-storage           STORAGE      0.55     4.18     4.98     0  05:23        4.16
  CC-storage           STORAGE      0.40     0.62     7.62     0  04:24        0.62
  XR-storage           STORAGE      6.50     7.72     5.72     0  04:14        7.72
  
  
  *******************
  Node Inflow Summary
  *******************
  
  -------------------------------------------------------------------------------------------------
                                  Maximum  Maximum                  Lateral       Total        Flow
                                  Lateral    Total  Time of Max      Inflow      Inflow     Balance
                                   Inflow   Inflow   Occurrence      Volume      Volume       Error
  Node                 Type           LPS      LPS  days hr:min    10^6 ltr    10^6 ltr     Percent
  -------------------------------------------------------------------------------------------------
  WS02001211           JUNCTION      7.35   381.58     0  02:50       0.207        6.28       0.491
  WS02001212           JUNCTION      0.00   377.63     0  02:51           0        6.25       0.289
  WS02001213           JUNCTION      0.00   376.28     0  02:51           0        6.23       0.315
  WS02003069           JUNCTION      0.32   894.69     0  02:52     0.00902        12.9       0.222
  WS02003072           JUNCTION      0.00   894.38     0  02:53           0        12.9       0.272
  WS02003073           JUNCTION      1.82   896.02     0  02:54      0.0514        12.9       0.302
  WS02003060           JUNCTION     16.53   894.40     0  02:52       0.466        12.9       0.213
  WS02003066           JUNCTION      0.00   512.33     0  02:46           0         6.3       0.078
  WS02003059           JUNCTION      0.00   375.94     0  02:52           0        6.21       0.579
  WS02003067           JUNCTION      0.00   512.28     0  02:46           0        6.31       0.160
  WS02004401           JUNCTION      0.00   514.66     0  02:43           0        6.56       0.365
  WS02004402           JUNCTION      0.00   514.44     0  02:43           0        6.54       0.340
  WS02004403           JUNCTION      0.00   514.33     0  02:43           0        6.52       0.306
  WS02004404           JUNCTION      0.16   514.32     0  02:43     0.00457         6.5       0.228
  WS02004406           JUNCTION      0.00   514.41     0  02:44           0        6.47       0.555
  WS02004409           JUNCTION      0.00   514.12     0  02:44           0        6.42       0.296
  WS02004410           JUNCTION      0.00   513.52     0  02:45           0         6.4       0.327
  WS02004411           JUNCTION      0.00   513.02     0  02:45           0        6.38       0.332
  WS02004412           JUNCTION      0.00   512.69     0  02:45           0        6.36       0.353
  WS02004413           JUNCTION      0.00   512.44     0  02:46           0        6.34       0.514
  WS02004405           JUNCTION      0.04   514.30     0  02:44     0.00107        6.49       0.339
  WS02006109           JUNCTION      1.23   511.32     0  02:40      0.0347        6.67       0.308
  WS02006110           JUNCTION      0.00   511.33     0  02:40           0        6.65       0.324
  WS02006111           JUNCTION      0.00   530.05     0  02:41           0        6.62       0.079
  WS02006112           JUNCTION      9.00   519.62     0  02:42       0.026        6.64       0.473
  WS02006113           JUNCTION      0.00   511.49     0  02:41           0        6.63       0.176
  WS02006115           JUNCTION      0.00   516.45     0  02:43           0        6.61       0.354
  WS02006116           JUNCTION      0.00   515.27     0  02:43           0        6.58       0.332
  WS02006230           JUNCTION     10.28   397.94     0  05:32        0.29        5.79       0.269
  WS02006231           JUNCTION      0.00   387.83     0  05:31           0        5.51       0.247
  WS02006232           JUNCTION      0.00   387.84     0  05:31           0        5.53       0.319
  WS02006234           JUNCTION      0.00   387.97     0  05:31           0        5.54       0.176
  WS02006235           JUNCTION      0.00   388.00     0  05:31           0        5.58       0.226
  WS02006238           JUNCTION      0.00   338.92     0  04:51           0        3.84       0.196
  WS02006240           JUNCTION      0.00   337.07     0  05:15           0        3.84       0.423
  WS02006242           JUNCTION      0.00   338.53     0  05:11           0        3.85       0.496
  WS02006243           JUNCTION      0.00   341.20     0  05:11           0        3.84      -0.050
  WS02006245           JUNCTION      0.00   343.39     0  05:11           0        3.85       0.411
  WS02006247           JUNCTION      0.00   345.30     0  05:11           0        3.86       0.282
  WS02006248           JUNCTION      0.00   348.91     0  05:50           0        3.87       0.152
  WS02006249           JUNCTION      0.00   421.85     0  02:40           0        4.14       0.417
  WS02006239           JUNCTION      0.00   339.02     0  04:51           0        3.84       0.283
  WS02006251           JUNCTION      0.08   422.92     0  02:40     0.00217        4.18       0.331
  WS02006252           JUNCTION      0.00   400.00     0  05:10           0        4.01       0.013
  WS02006253           JUNCTION      1.37    39.91     0  02:18     0.00336       0.176       4.981
  WS02006256           JUNCTION      0.00   599.93     0  05:40           0        3.94       0.077
  WS02004138           JUNCTION      0.00   380.00     0  02:50           0         6.1       0.062
  WS02004407           JUNCTION      0.00   514.21     0  02:44           0        6.43       0.134
  WS02006228           JUNCTION      0.00   510.10     0  02:40           0        6.65       0.237
  WS02006229           JUNCTION      0.00   510.09     0  02:40           0        6.67       0.209
  WS02006280           JUNCTION      0.00   205.17     0  02:19           0       0.897       0.008
  WS02006284           JUNCTION      0.10   205.17     0  02:19      0.0027       0.898       0.119
  WS02006287           JUNCTION      0.00   205.06     0  02:19           0       0.896       0.081
  WSF200               JUNCTION      0.00   512.36     0  02:46           0        6.29       0.079
  HS02004901           JUNCTION     11.14    11.14     0  02:11      0.0313      0.0314       5.928
  HS02004881           JUNCTION      4.51    38.86     0  02:18      0.0136       0.143       0.161
  HS02004876           JUNCTION      7.19    34.66     0  02:18      0.0261        0.13       0.407
  HS02004870           JUNCTION      7.96    27.60     0  02:18      0.0258       0.104       0.102
  HS02004862           JUNCTION      6.57    20.16     0  02:19      0.0314      0.0785       0.216
  HS02004856           JUNCTION      5.90    13.64     0  02:18      0.0194      0.0486       3.059
  HS02004852           JUNCTION      0.00     8.10     0  02:19           0      0.0292       0.174
  HS02004848           JUNCTION     13.12    13.12     0  02:22      0.0615      0.0615       0.071
  HS02004842           JUNCTION      0.00     5.46     0  02:31           0      0.0453      40.265
  HS02004837           JUNCTION     19.11    23.75     0  02:18       0.224       0.256       0.318
  HS02004830           JUNCTION      0.15    23.88     0  02:18     0.00423       0.247       0.502
  HS02004824           JUNCTION     14.79    38.49     0  02:22      0.0805       0.326       0.165
  HS02004817           JUNCTION      0.60    39.08     0  02:22      0.0169       0.342       5.117
  HS02004807           JUNCTION     14.97    52.72     0  02:20      0.0475       0.373       1.146
  HS02004802           JUNCTION      0.00    53.00     0  02:21           0       0.369       1.114
  HS02004799           JUNCTION     11.53   129.88     0  02:16      0.0384       0.465       0.490
  HS02004792           JUNCTION     51.47   118.58     0  02:16       0.168       0.427       0.096
  HS02004788           JUNCTION     17.31    69.08     0  02:17         0.1       0.261       0.151
  HS02004785           JUNCTION      0.15    52.12     0  02:16     0.00423       0.162       0.299
  HS02004777           JUNCTION      0.03    52.40     0  02:15    0.000846       0.162       3.291
  HS02004770           JUNCTION     43.62    53.57     0  02:13       0.134       0.163       1.934
  HS02004480           JUNCTION      0.00   153.16     0  02:17           0       0.543       0.134
  HS02004479           JUNCTION      0.00    23.75     0  02:19           0      0.0899       0.817
  HS02004478           JUNCTION      0.00   205.05     0  02:18           0       0.897       0.070
  YS02001745           JUNCTION     76.22    76.22     0  03:01       0.821       0.821       0.110
  YS02001748           JUNCTION      0.04   126.59     0  03:49     0.00127       0.848       0.609
  YS02001751           JUNCTION      0.01   182.59     0  03:31     0.00031       0.845       1.567
  YS02001754           JUNCTION      0.26   148.39     0  03:50     0.00733       0.816       2.473
  YS02001762           JUNCTION      0.00   133.80     0  02:57           0       0.897       2.306
  YS02001765           JUNCTION      0.00   127.03     0  03:01           0       0.897       2.505
  YS02001767           JUNCTION      0.54   148.14     0  03:01      0.0151       0.915       3.651
  YS02001770           JUNCTION     97.68   158.51     0  03:00        0.96        1.03       2.811
  YS02001774           JUNCTION      0.00    72.88     0  03:01           0       0.166      17.569
  YS02001779           JUNCTION      0.01    56.43     0  03:00    0.000141       0.076      19.305
  YS02001882           JUNCTION      0.00     3.95     0  02:10           0     0.00526      46.807
  YS02001884           JUNCTION      0.00    11.33     0  02:07           0       0.021      30.147
  YS02001759           JUNCTION     95.32   224.65     0  02:57       0.896        1.76       1.281
  YS02001887           JUNCTION    125.09   125.09     0  02:45        1.07        1.08       0.667
  YS02001890           JUNCTION      0.00   124.92     0  02:47           0        1.06       0.748
  YS02001898           JUNCTION      0.00   124.32     0  02:47           0        1.04       0.211
  YS02001901           JUNCTION      0.00   124.25     0  02:46           0        1.04       0.531
  YS02001904           JUNCTION      0.00   123.85     0  02:54           0        1.04       0.494
  YS02001907           JUNCTION      0.00   225.50     0  02:58           0        2.23       0.997
  YS02001910           JUNCTION      0.00   103.16     0  03:00           0         1.2       0.853
  YS02001915           JUNCTION     68.22   102.76     0  03:01       0.702        1.21       0.379
  YS02001918           JUNCTION      0.00    34.80     0  03:02           0       0.504       0.224
  YS02001619           JUNCTION     66.37    66.37     0  03:01       0.693       0.693       0.861
  YS02001629           JUNCTION      0.00   121.43     0  03:20           0       0.645       2.843
  YS02001641           JUNCTION      0.00   163.73     0  03:01           0        1.37       1.489
  YS02001644           JUNCTION     72.40   231.94     0  03:04       0.788        2.13       1.212
  YS02001652           JUNCTION      0.00   131.04     0  03:27           0       0.774       2.375
  YS02001655           JUNCTION      0.15   197.00     0  03:26     0.00434       0.807       1.839
  YS02001920           JUNCTION      2.87    34.82     0  03:02      0.0809       0.506       0.405
  YS02001923           JUNCTION      0.04    31.96     0  03:02     0.00106       0.425       0.071
  YS02001926           JUNCTION      0.05    31.99     0  03:01     0.00147       0.426       0.507
  YS02001929           JUNCTION     31.96    31.96     0  03:01       0.425       0.425       0.069
  YS02001658           JUNCTION      0.00   143.61     0  04:27           0       0.835       0.638
  YS02001661           JUNCTION      0.00    90.25     0  04:25           0        0.81       0.102
  YS02001664           JUNCTION     88.77    88.77     0  02:48       0.783       0.783       0.020
  YS02001622           JUNCTION      0.00    98.87     0  03:15           0       0.691       2.525
  YS02001633           JUNCTION     73.59   186.38     0  03:10       0.811        1.42       1.978
  YS02001649           JUNCTION      0.00   337.73     0  03:02           0        2.82       1.305
  YS02001757           JUNCTION      0.00   562.64     0  03:00           0        5.27       1.768
  YS02001895           JUNCTION      0.00   124.44     0  02:46           0        1.05       0.356
  YS02001625           JUNCTION      0.00   110.56     0  03:19           0       0.679       5.162
  YS02163301           JUNCTION      0.00   117.63     0  03:30           0       0.631       3.573
  YS02163601           JUNCTION      0.11   159.29     0  02:55      0.0031        1.39       2.143
  YS02164001           JUNCTION      0.00   161.21     0  02:55           0        1.37       1.281
  YS02001647           JUNCTION      0.00   234.44     0  03:01           0        2.09       1.097
  YSB1154              JUNCTION     12.79    12.79     0  02:16      0.0465      0.0479       3.108
  YSB6556              JUNCTION      0.00    12.79     0  02:18           0      0.0489       2.613
  YSB1174              JUNCTION     12.68    12.68     0  02:10      0.0339       0.035       3.811
  YSB1171              JUNCTION      0.00    23.69     0  02:16           0      0.0894       7.605
  YS02006553           JUNCTION      0.00   225.51     0  02:59           0        2.22       0.647
  YS02006561           JUNCTION      0.00   334.31     0  02:57           0        3.15       0.022
  YS02006556           JUNCTION      0.00   225.53     0  02:59           0        2.23       0.467
  YS02006558           JUNCTION    106.10   330.69     0  02:54       0.975        3.17       0.141
  YS02001783           JUNCTION      0.00   330.62     0  02:57           0        3.14       0.049
  YS02001784           JUNCTION      1.06   331.66     0  02:55      0.0299        3.17       0.080
  YS02001786           JUNCTION      0.06   331.71     0  02:56     0.00159        3.17       0.078
  YS02001788           JUNCTION      0.07   331.78     0  02:56       0.002        3.17       0.045
  YS02001790           JUNCTION      0.15   331.93     0  02:56     0.00437        3.17       0.056
  YS02001791           JUNCTION      0.00   331.91     0  02:56           0        3.17       0.028
  YS02001793           JUNCTION      0.00   331.91     0  02:56           0        3.17       0.010
  WS02004139           JUNCTION      0.32   379.65     0  02:50     0.00905         6.1       0.526
  WSC                  OUTFALL       0.00   895.73     0  02:54           0        12.9       0.000
  3                    OUTFALL       0.00   482.95     0  05:40           0        2.17       0.000
  4                    OUTFALL       0.00   130.86     0  02:40           0       0.253       0.000
  5                    OUTFALL       0.00     0.00     0  00:00           0           0       0.000 ltr
  JK-storage           STORAGE       0.00   331.91     0  02:56           0        3.32     -15.669
  CC-storage           STORAGE       0.00   555.39     0  03:00           0        5.18       0.451
  XR-storage           STORAGE     323.40   323.40     0  02:59        7.02        7.62      -0.002
  
  
  **********************
  Node Surcharge Summary
  **********************
  
  Surcharging occurs when water rises above the top of the highest conduit.
  ---------------------------------------------------------------------
                                               Max. Height   Min. Depth
                                   Hours       Above Crown    Below Rim
  Node                 Type      Surcharged         Meters       Meters
  ---------------------------------------------------------------------
  WS02006109           JUNCTION        0.89          0.123        1.697
  WS02006112           JUNCTION        0.27          0.024        1.656
  WS02006232           JUNCTION        1.02          0.097        1.383
  WS02006234           JUNCTION        0.14          0.021        1.219
  WS02006235           JUNCTION        0.43          0.067        1.223
  WS02006238           JUNCTION        0.72          0.085        1.345
  WS02006240           JUNCTION        0.11          0.020        1.370
  WS02006242           JUNCTION        0.48          0.069        0.751
  WS02006239           JUNCTION        0.19          0.038        1.252
  WS02006252           JUNCTION        1.71          0.188        0.912
  WS02006228           JUNCTION        0.83          0.144        2.056
  YS02001754           JUNCTION        0.02          0.050        1.100
  YS02001762           JUNCTION        5.08          0.305        0.845
  YS02001765           JUNCTION        4.74          0.277        0.823
  YS02001767           JUNCTION        4.19          0.255        0.775
  YS02001770           JUNCTION        2.19          0.207        0.713
  YS02001774           JUNCTION        4.99          0.297        0.753
  YS02001779           JUNCTION        0.03          0.044        0.636
  YS02001759           JUNCTION        5.15          0.327        0.883
  YS02001641           JUNCTION        4.90          0.365        0.735
  YS02001644           JUNCTION        4.94          0.367        0.553
  YS02001652           JUNCTION        0.42          0.229        0.901
  YS02001633           JUNCTION        4.42          0.287        0.773
  YS02001649           JUNCTION        5.10          0.340        0.710
  YS02001757           JUNCTION        5.31          0.433        0.777
  YS02001625           JUNCTION        1.05          0.092        0.688
  YS02163301           JUNCTION        2.51          0.210        0.820
  YS02163601           JUNCTION        5.10          0.386        0.694
  YS02164001           JUNCTION        4.72          0.336        0.764
  YS02001647           JUNCTION        0.82          0.184        0.716
  
  
  *********************
  Node Flooding Summary
  *********************
  
  Flooding refers to all water that overflows a node, whether it ponds or not.
  --------------------------------------------------------------------------
                                                             Total   Maximum
                                 Maximum   Time of Max       Flood    Ponded
                        Hours       Rate    Occurrence      Volume     Depth
  Node                 Flooded       LPS   days hr:min    10^6 ltr    Meters
  --------------------------------------------------------------------------
  XR-storage              1.85    176.85      0  04:20       0.591     0.000
  
  
  **********************
  Storage Volume Summary
  **********************
  
  --------------------------------------------------------------------------------------------------
                         Average     Avg  Evap Exfil       Maximum     Max    Time of Max    Maximum
                          Volume    Pcnt  Pcnt  Pcnt        Volume    Pcnt     Occurrence    Outflow
  Storage Unit           1000 m3    Full  Loss  Loss       1000 m3    Full    days hr:min        LPS
  --------------------------------------------------------------------------------------------------
  JK-storage               0.028       9     0     0         0.210      72       0  05:23     599.93
  CC-storage               1.124       7     0     0         1.741      11       0  04:24     400.00
  XR-storage               0.780      84     0     0         0.926     100       0  04:14     380.00
  
  
  ***********************
  Outfall Loading Summary
  ***********************
  
  -----------------------------------------------------------
                         Flow       Avg       Max       Total
                         Freq      Flow      Flow      Volume
  Outfall Node           Pcnt       LPS       LPS    10^6 ltr
  -----------------------------------------------------------
  WSC                   99.99    517.43    895.73      12.858
  3                     74.83    151.84    482.95       2.173
  4                     24.65     43.92    130.86       0.253
  5                      0.00      0.00      0.00       0.000
  -----------------------------------------------------------
  System                49.87    713.19   1162.62      15.284
  
  
  ********************
  Link Flow Summary
  ********************
  
  -----------------------------------------------------------------------------
                                 Maximum  Time of Max   Maximum    Max/    Max/
                                  |Flow|   Occurrence   |Veloc|    Full    Full
  Link                 Type          LPS  days hr:min     m/sec    Flow   Depth
  -----------------------------------------------------------------------------
  WS02003066WSF200     CONDUIT    512.36     0  02:46      2.74    0.09    0.22
  WS02006287WS02006284 CONDUIT    205.07     0  02:19      1.62    0.10    0.22
  WS02006284WS02006280 CONDUIT    205.17     0  02:19      1.86    0.09    0.20
  WS02006280WS02006229 CONDUIT    205.18     0  02:19      2.99    0.04    0.14
  WS02006229WS02006228 CONDUIT    510.10     0  02:40      1.01    1.69    1.00
  WS02006256WS02006235 CONDUIT    166.25     0  00:01      2.58    1.76    1.00
  WS02006253WS02006251 CONDUIT     40.21     0  02:18      0.49    0.12    0.93
  WS02006252WS02006251 CONDUIT    400.13     0  07:40      3.18    1.47    1.00
  WS02006251WS02006249 CONDUIT    421.85     0  02:40      1.17    1.22    0.90
  WS02006249WS02006248 CONDUIT    348.91     0  05:50      1.15    1.91    0.86
  WS02006248WS02006247 CONDUIT    345.30     0  05:11      1.11    0.75    0.90
  WS02006247WS02006245 CONDUIT    343.39     0  05:11      1.06    2.72    0.94
  WS02006245WS02006243 CONDUIT    341.20     0  05:11      1.07    1.01    0.96
  WS02006243WS02006242 CONDUIT    338.53     0  05:11      0.99    0.72    0.99
  WS02006242WS02006240 CONDUIT    337.07     0  05:15      0.95    1.34    1.00
  WS02006240WS02006239 CONDUIT    339.02     0  04:51      0.99    1.07    1.00
  WS02006239WS02006238 CONDUIT    338.92     0  04:51      0.92    1.08    1.00
  WS02006238WS02006235 CONDUIT    338.99     0  04:51      1.25    0.76    1.00
  WS02006235WS02006234 CONDUIT    387.97     0  05:31      1.03    4.09    1.00
  WS02006234WS02006232 CONDUIT    387.84     0  05:31      1.13    0.78    1.00
  WS02006232WS02006231 CONDUIT    387.83     0  05:31      1.05    0.81    0.97
  WS02006231WS02006230 CONDUIT    387.66     0  05:32      1.33    5.88    0.91
  WS02006230WS02006229 CONDUIT    397.86     0  05:32      1.03    8.85    1.00
  WS02006228WS02006109 CONDUIT    510.09     0  02:40      1.01    2.23    1.00
  WS02006116WS02004401 CONDUIT    514.66     0  02:43      0.75    0.71    0.82
  WS02006115WS02006116 CONDUIT    515.27     0  02:43      0.83    0.66    0.74
  WS02006113WS02006111 CONDUIT    530.05     0  02:41      2.42    0.64    0.45
  WS02006112WS02006115 CONDUIT    516.45     0  02:43      0.72    0.30    0.86
  WS02006111WS02006112 CONDUIT    515.56     0  02:42      1.44    0.25    0.67
  WS02006110WS02006113 CONDUIT    511.49     0  02:41      1.22    0.47    0.78
  WS02006109WS02006110 CONDUIT    511.33     0  02:40      1.02    0.98    1.00
  WS02004411WS02004412 CONDUIT    512.69     0  02:45      0.90    0.73    0.68
  WS02004401WS02004402 CONDUIT    514.44     0  02:43      0.77    0.62    0.85
  WS02004413WS02003067 CONDUIT    512.28     0  02:46      1.08    0.22    0.58
  WS02004412WS02004413 CONDUIT    512.44     0  02:46      0.80    0.34    0.76
  WS02004410WS02004411 CONDUIT    513.02     0  02:45      0.92    0.70    0.67
  WS02004409WS02004410 CONDUIT    513.52     0  02:45      0.94    0.66    0.66
  WS02004407WS02004409 CONDUIT    514.12     0  02:44      1.42    0.18    0.47
  WS02004406WS02004407 CONDUIT    514.21     0  02:44      1.01    0.23    0.62
  WS02004405WS02004406 CONDUIT    514.41     0  02:44      0.67    1.01    0.94
  WS02004404WS02004405 CONDUIT    514.26     0  02:44      0.84    5.04    0.94
  WS02004403WS02004404 CONDUIT    514.16     0  02:43      0.74    0.37    0.91
  WS02004402WS02004403 CONDUIT    514.33     0  02:43      0.75    0.74    0.87
  WS02004139WS02001211 CONDUIT    374.23     0  02:50      0.69    0.47    0.59
  WS02004138WS02004139 CONDUIT    379.33     0  02:50      2.94    0.08    0.43
  WS02003067WS02003066 CONDUIT    512.33     0  02:46      1.18    0.16    0.41
  WS02001213WS02003059 CONDUIT    375.94     0  02:52      0.67    0.62    0.76
  WS02001212WS02001213 CONDUIT    376.28     0  02:51      1.30    0.58    0.46
  WS02001211WS02001212 CONDUIT    377.63     0  02:51      0.76    0.29    0.64
  WS02003072WS02003073 CONDUIT    894.20     0  02:54      1.70    1.93    0.47
  WS02003069WS02003072 CONDUIT    894.38     0  02:53      1.60    0.43    0.50
  WS02003060WS02003069 CONDUIT    894.37     0  02:52      1.84    0.35    0.44
  WS02003059WS02003060 CONDUIT    376.06     0  02:52      0.92    0.25    0.65
  HS02004901HS02004770 CONDUIT     10.28     0  02:16      0.05    0.04    0.32
  HS02004876HS02004881 CONDUIT     34.72     0  02:19      0.56    0.37    0.09
  HS02004870HS02004876 CONDUIT     27.59     0  02:19      0.39    0.02    0.10
  HS02004842HS02004848 CONDUIT      5.46     0  02:31      0.03    0.00    0.27
  HS02004837HS02004842 CONDUIT      5.63     0  02:32      0.41    0.00    0.29
  HS02004830HS02004837 CONDUIT     23.73     0  02:18      0.44    0.02    0.08
  HS02004824HS02004830 CONDUIT     23.88     0  02:19      0.48    0.03    0.07
  HS02004817HS02004824 CONDUIT     38.48     0  02:22      0.17    0.02    0.40
  HS02004770HS02004777 CONDUIT     52.37     0  02:15      0.23    0.10    0.33
  HS02004799HS02004480 CONDUIT    129.69     0  02:17      0.59    0.16    0.31
  HS02004792HS02004799 CONDUIT    118.52     0  02:16      0.68    0.07    0.25
  HS02004788HS02004792 CONDUIT     69.01     0  02:17      0.83    0.05    0.12
  HS02004785HS02004788 CONDUIT     52.02     0  02:17      0.51    0.39    0.14
  HS02004777HS02004785 CONDUIT     51.97     0  02:16      0.27    0.06    0.27
  HS02004480HS02004478 CONDUIT    153.12     0  02:17      0.96    0.64    0.23
  HS02004479HS02004480 CONDUIT     23.96     0  02:19      0.15    0.02    0.31
  HS02004862HS02004870 CONDUIT     20.13     0  02:20      0.47    0.02    0.06
  HS02004848HS02004852 CONDUIT      8.10     0  02:19      0.31    0.01    0.04
  HS02004856HS02004862 CONDUIT     13.61     0  02:19      0.34    0.01    0.06
  HS02004852HS02004856 CONDUIT      8.07     0  02:20      0.12    0.01    0.09
  HS02004802HS02004478 CONDUIT     53.38     0  02:22      0.30    0.05    0.26
  HS02004478WS02006287 CONDUIT    205.06     0  02:19      1.32    0.06    0.17
  HS02004817HS02004807 CONDUIT     39.63     0  02:24      0.11    0.02    0.51
  HS02004807HS02004802 CONDUIT     53.00     0  02:21      0.25    0.10    0.30
  YS02001759YS02001757 CONDUIT    226.24     0  02:57      0.29    0.16    1.00
  YS02001762YS02001759 CONDUIT    129.59     0  02:57      0.17    0.15    1.00
  YS02001765YS02001762 CONDUIT    133.80     0  02:57      0.23    0.13    1.00
  YS02001770YS02001767 CONDUIT    147.61     0  03:01      0.32    0.58    1.00
  YS02001774YS02001770 CONDUIT     72.88     0  03:01      0.15    0.05    1.00
  YS02001779YS02001774 CONDUIT     57.74     0  03:00      0.08    0.03    1.00
  YS02001649YS02001757 CONDUIT    341.09     0  03:02      0.43    0.21    1.00
  YS02001767YS02001765 CONDUIT    127.03     0  03:01      0.26    0.16    1.00
  YS02006561YS02001783 CONDUIT    330.62     0  02:57      1.81    0.17    0.39
  YS02001783YS02001784 CONDUIT    330.60     0  02:55      1.25    0.46    0.52
  YS02001784YS02001785 CONDUIT    331.66     0  02:56      1.34    0.77    0.50
  YS02001788YS02001790 CONDUIT    331.78     0  02:56      1.90    0.24    0.38
  YS02001790YS02001791 CONDUIT    331.91     0  02:56      2.17    0.36    0.34
  YS02001791YS02001793 CONDUIT    331.91     0  02:56      4.47    0.14    0.21
  YS02001910YS02001907 CONDUIT    103.21     0  03:01      0.49    0.06    0.75
  YS02001786YS02001788 CONDUIT    331.70     0  02:56      1.78    0.64    0.40
  YS02001915YS02001910 CONDUIT    103.16     0  03:00      0.44    0.05    0.54
  YS02001918YS02001915 CONDUIT     34.78     0  03:03      0.44    0.02    0.26
  YS02001923YS02001920 CONDUIT     31.95     0  03:02      0.46    0.01    0.14
  YS02001926YS02001923 CONDUIT     31.92     0  03:02      0.50    0.05    0.14
  YS02001929YS02001926 CONDUIT     31.94     0  03:01      0.53    0.02    0.13
  YS02001920YS02001918 CONDUIT     34.80     0  03:02      0.47    0.03    0.15
  YS02001629YS02163301 CONDUIT    117.63     0  03:30      0.15    0.14    1.00
  YS02001619YS02001622 CONDUIT     98.87     0  03:15      0.65    0.15    0.75
  YS02001622YS02001625 CONDUIT    108.92     0  03:22      0.25    0.06    0.88
  YS02001625YS02001629 CONDUIT    121.43     0  03:20      0.25    0.06    0.88
  YS02163301YS02001633 CONDUIT    117.67     0  03:10      0.15    0.11    1.00
  YS02163601YS02164001 CONDUIT    161.21     0  02:55      0.21    0.14    1.00
  YS02164001YS02001641 CONDUIT    163.73     0  03:01      0.21    0.22    1.00
  YS02001641YS02001644 CONDUIT    161.24     0  03:04      0.21    0.52    1.00
  YS02001647YS02001649 CONDUIT    260.32     0  03:29      0.34    0.14    1.00
  YS02006553YS02006556 CONDUIT    225.53     0  02:59      0.32    0.19    0.83
  YS02006556YS02006558 CONDUIT    225.65     0  03:00      0.32    0.18    0.86
  YSB6556YSB1171       CONDUIT     12.95     0  02:20      0.06    0.01    0.57
  YS02001907YS02006553 CONDUIT    225.51     0  02:59      0.27    0.27    0.94
  YS02006558YS02006561 CONDUIT    334.31     0  02:57      2.36    0.74    0.50
  YS02001633YS02163601 CONDUIT    159.18     0  02:55      0.20    0.17    1.00
  YS02001644YS02001647 CONDUIT    234.44     0  03:01      0.31    0.14    1.00
  YS02001745YS02001748 CONDUIT     84.70     0  04:31      1.41    0.03    0.32
  YS02001748YS02001751 CONDUIT    182.58     0  03:31      1.09    0.09    0.67
  YS02001751YS02001754 CONDUIT    131.64     0  04:11      0.96    0.06    0.89
  YS02001754YS02001757 CONDUIT    142.10     0  03:32      0.33    0.06    1.00
  YS02001882YS02001884 CONDUIT      3.95     0  02:10      0.06    0.00    0.47
  YS02001884YS02001887 CONDUIT     11.33     0  02:07      0.06    0.02    0.57
  YS02001890YS02001895 CONDUIT    124.44     0  02:46      0.29    0.06    0.54
  YS02001895YS02001898 CONDUIT    124.32     0  02:47      0.48    0.22    0.40
  YS02001898YS02001901 CONDUIT    124.25     0  02:46      0.34    0.08    0.48
  YS02001901YS02001904 CONDUIT    123.85     0  02:54      0.29    0.19    0.53
  YS02001904YS02001907 CONDUIT    123.93     0  02:54      0.21    0.04    0.69
  YS02001887YS02001890 CONDUIT    124.92     0  02:47      0.24    0.21    0.62
  YS02001652YS02001649 CONDUIT    176.25     0  03:26      0.32    0.09    1.00
  YS02001655YS02001652 CONDUIT    120.88     0  02:58      1.04    0.06    0.93
  YS02001658YS02001655 CONDUIT    196.84     0  03:26      1.26    0.08    0.68
  YS02001661YS02001658 CONDUIT    143.61     0  04:27      1.46    0.06    0.35
  YS02001664YS02001661 CONDUIT     88.76     0  02:48      1.13    0.03    0.18
  YSB1154YSB6556       CONDUIT     12.79     0  02:18      0.19    0.02    0.46
  YSB1174YSB1171       CONDUIT     11.79     0  02:11      0.05    0.02    0.58
  YSB1171HS02004479    CONDUIT     23.75     0  02:19      0.54    0.02    0.45
  HS02004881HS02006253 CONDUIT     38.86     0  02:18      1.66    0.01    0.25
  YS02001793JiankangQianchi CONDUIT    331.91     0  02:56     13.02    0.03    0.59
  YS02001757CaochengTiaoxuchi CONDUIT    555.39     0  03:00      1.24    0.24    0.81
  WSF200WS02003060     CONDUIT    512.80     0  02:47      1.69    0.11    0.33
  1                    CONDUIT    895.73     0  02:54      3.23    0.31    0.38
  2                    CONDUIT    130.86     0  02:40      5.22    0.31    0.38
  3                    CONDUIT    482.95     0  05:40      9.75    0.77    0.66
  4                    CONDUIT      0.00     0  00:00      0.00    0.00    0.00
  CC-Pump-1            PUMP       200.00     0  02:23              1.00
  CC-Pump-2            PUMP       200.00     0  02:40              1.00
  JK-Pump-1            PUMP       300.00     0  07:00              1.00
  JK-Pump-2            PUMP       300.00     0  00:00              1.00
  XR-Pump-1            PUMP        95.00     0  00:40              1.00
  XR-Pump-2            PUMP        95.00     0  00:00              1.00
  XR-Pump-3            PUMP        95.00     0  00:20              1.00
  XR-Pump-4            PUMP        95.00     0  00:00              1.00
  
  
  ***************************
  Flow Classification Summary
  ***************************
  
  -------------------------------------------------------------------------------------
                      Adjusted    ---------- Fraction of Time in Flow Class ---------- 
                       /Actual         Up    Down  Sub   Sup   Up    Down  Norm  Inlet 
  Conduit               Length    Dry  Dry   Dry   Crit  Crit  Crit  Crit  Ltd   Ctrl  
  -------------------------------------------------------------------------------------
  WS02003066WSF200        1.00   0.05  0.01  0.00  0.00  0.93  0.00  0.00  0.72  0.00
  WS02006287WS02006284    1.00   0.04  0.02  0.00  0.68  0.26  0.00  0.00  0.77  0.00
  WS02006284WS02006280    1.00   0.05  0.00  0.00  0.00  0.00  0.00  0.95  0.00  0.00
  WS02006280WS02006229    1.00   0.05  0.00  0.00  0.00  0.00  0.00  0.95  0.00  0.00
  WS02006229WS02006228    1.00   0.00  0.00  0.00  0.98  0.00  0.00  0.01  0.00  0.00
  WS02006256WS02006235    1.00   0.00  0.00  0.00  1.00  0.00  0.00  0.00  0.00  0.00
  WS02006253WS02006251    1.00   0.03  0.01  0.00  0.95  0.00  0.00  0.00  0.00  0.00
  WS02006252WS02006251    1.00   0.09  0.00  0.00  0.00  0.00  0.91  0.00  0.00  0.00
  WS02006251WS02006249    1.00   0.00  0.00  0.00  1.00  0.00  0.00  0.00  0.31  0.00
  WS02006249WS02006248    1.00   0.00  0.02  0.00  0.85  0.00  0.13  0.00  0.00  0.00
  WS02006248WS02006247    1.00   0.03  0.00  0.00  0.97  0.00  0.00  0.00  0.21  0.00
  WS02006247WS02006245    1.00   0.02  0.00  0.00  0.97  0.00  0.00  0.00  0.00  0.00
  WS02006245WS02006243    1.00   0.01  0.00  0.00  0.93  0.00  0.00  0.05  0.01  0.00
  WS02006243WS02006242    1.00   0.01  0.00  0.00  0.99  0.00  0.00  0.00  0.29  0.00
  WS02006242WS02006240    1.00   0.00  0.00  0.00  0.99  0.00  0.00  0.00  0.00  0.00
  WS02006240WS02006239    1.00   0.00  0.00  0.00  0.95  0.00  0.00  0.05  0.02  0.00
  WS02006239WS02006238    1.00   0.00  0.00  0.00  1.00  0.00  0.00  0.00  0.06  0.00
  WS02006238WS02006235    1.00   0.00  0.00  0.00  1.00  0.00  0.00  0.00  0.00  0.00
  WS02006235WS02006234    1.00   0.00  0.00  0.00  0.95  0.00  0.05  0.00  0.00  0.00
  WS02006234WS02006232    1.00   0.00  0.00  0.00  1.00  0.00  0.00  0.00  0.04  0.00
  WS02006232WS02006231    1.00   0.00  0.00  0.00  0.99  0.00  0.01  0.00  0.00  0.00
  WS02006231WS02006230    1.00   0.00  0.00  0.00  0.49  0.00  0.51  0.00  0.00  0.00
  WS02006230WS02006229    1.00   0.00  0.00  0.00  0.98  0.00  0.00  0.02  0.01  0.00
  WS02006228WS02006109    1.00   0.00  0.00  0.00  1.00  0.00  0.00  0.00  0.00  0.00
  WS02006116WS02004401    1.00   0.03  0.00  0.00  0.97  0.00  0.00  0.00  0.00  0.00
  WS02006115WS02006116    1.00   0.03  0.00  0.00  0.97  0.00  0.00  0.01  0.00  0.00
  WS02006113WS02006111    1.00   0.02  0.00  0.00  0.00  0.98  0.00  0.00  0.14  0.00
  WS02006112WS02006115    1.00   0.02  0.00  0.00  0.97  0.00  0.00  0.00  0.00  0.00
  WS02006111WS02006112    1.00   0.02  0.00  0.00  0.97  0.00  0.00  0.00  0.98  0.00
  WS02006110WS02006113    1.00   0.01  0.01  0.00  0.98  0.00  0.00  0.00  0.00  0.00
  WS02006109WS02006110    1.00   0.00  0.01  0.00  0.98  0.00  0.01  0.00  0.00  0.00
  WS02004411WS02004412    1.00   0.04  0.00  0.00  0.96  0.00  0.00  0.00  0.00  0.00
  WS02004401WS02004402    1.00   0.03  0.00  0.00  0.97  0.00  0.00  0.00  0.00  0.00
  WS02004413WS02003067    1.00   0.04  0.02  0.00  0.00  0.00  0.94  0.00  0.00  0.00
  WS02004412WS02004413    1.00   0.04  0.00  0.00  0.96  0.00  0.00  0.00  0.03  0.00
  WS02004410WS02004411    1.00   0.04  0.00  0.00  0.96  0.00  0.00  0.00  0.04  0.00
  WS02004409WS02004410    1.00   0.04  0.00  0.00  0.96  0.00  0.00  0.00  0.04  0.00
  WS02004407WS02004409    1.00   0.04  0.00  0.00  0.96  0.00  0.00  0.00  0.89  0.00
  WS02004406WS02004407    1.00   0.00  0.04  0.00  0.96  0.00  0.00  0.00  0.00  0.00
  WS02004405WS02004406    1.00   0.00  0.00  0.00  1.00  0.00  0.00  0.00  0.00  0.00
  WS02004404WS02004405    1.00   0.00  0.00  0.00  1.00  0.00  0.00  0.00  0.00  0.00
  WS02004403WS02004404    1.00   0.00  0.03  0.00  0.97  0.00  0.00  0.00  0.01  0.00
  WS02004402WS02004403    1.00   0.03  0.00  0.00  0.97  0.00  0.00  0.00  0.00  0.00
  WS02004139WS02001211    1.00   0.00  0.00  0.00  0.99  0.00  0.01  0.00  0.00  0.00
  WS02004138WS02004139    1.00   0.00  0.00  0.00  0.99  0.01  0.00  0.00  1.00  0.00
  WS02003067WS02003066    1.00   0.06  0.01  0.00  0.93  0.00  0.00  0.00  0.00  0.00
  WS02001213WS02003059    1.00   0.00  0.00  0.00  0.99  0.00  0.00  0.00  0.00  0.00
  WS02001212WS02001213    1.00   0.01  0.00  0.00  0.75  0.00  0.24  0.00  0.00  0.00
  WS02001211WS02001212    1.00   0.00  0.00  0.00  1.00  0.00  0.00  0.00  0.00  0.00
  WS02003072WS02003073    1.00   0.00  0.00  0.00  0.00  0.00  0.00  1.00  0.00  0.00
  WS02003069WS02003072    1.00   0.00  0.00  0.00  0.99  0.01  0.00  0.00  0.35  0.00
  WS02003060WS02003069    1.00   0.00  0.00  0.00  0.98  0.02  0.00  0.00  0.16  0.00
  WS02003059WS02003060    1.00   0.00  0.00  0.00  1.00  0.00  0.00  0.00  0.01  0.00
  HS02004901HS02004770    1.00   0.05  0.00  0.00  0.95  0.00  0.00  0.00  0.02  0.00
  HS02004876HS02004881    1.00   0.03  0.00  0.00  0.97  0.00  0.00  0.00  0.00  0.00
  HS02004870HS02004876    1.00   0.01  0.00  0.00  0.99  0.00  0.00  0.00  0.95  0.00
  HS02004842HS02004848    1.00   0.00  0.05  0.00  0.95  0.00  0.00  0.00  0.68  0.00
  HS02004837HS02004842    1.00   0.00  0.00  0.00  0.99  0.01  0.00  0.00  0.11  0.00
  HS02004830HS02004837    1.00   0.00  0.00  0.00  1.00  0.00  0.00  0.00  0.99  0.00
  HS02004824HS02004830    1.00   0.00  0.00  0.00  1.00  0.00  0.00  0.00  0.00  0.00
  HS02004817HS02004824    1.00   0.00  0.00  0.00  1.00  0.00  0.00  0.00  1.00  0.00
  HS02004770HS02004777    1.00   0.00  0.05  0.00  0.95  0.00  0.00  0.00  0.07  0.00
  HS02004799HS02004480    1.00   0.00  0.03  0.00  0.94  0.00  0.03  0.00  0.00  0.00
  HS02004792HS02004799    1.00   0.00  0.00  0.00  0.98  0.02  0.00  0.00  0.98  0.00
  HS02004788HS02004792    1.00   0.00  0.00  0.00  0.99  0.01  0.00  0.00  0.98  0.00
  HS02004785HS02004788    1.00   0.00  0.00  0.00  1.00  0.00  0.00  0.00  0.00  0.00
  HS02004777HS02004785    1.00   0.00  0.00  0.00  1.00  0.00  0.00  0.00  0.21  0.00
  HS02004480HS02004478    1.00   0.05  0.00  0.00  0.72  0.00  0.00  0.23  0.00  0.00
  HS02004479HS02004480    1.00   0.03  0.00  0.00  0.97  0.00  0.00  0.00  0.16  0.00
  HS02004862HS02004870    1.00   0.00  0.00  0.00  1.00  0.00  0.00  0.00  0.06  0.00
  HS02004848HS02004852    1.00   0.05  0.00  0.00  0.95  0.00  0.00  0.00  0.71  0.00
  HS02004856HS02004862    1.00   0.00  0.07  0.00  0.93  0.00  0.00  0.00  0.74  0.00
  HS02004852HS02004856    1.00   0.05  0.01  0.00  0.94  0.00  0.00  0.00  0.83  0.00
  HS02004802HS02004478    1.00   0.05  0.01  0.00  0.94  0.00  0.00  0.00  0.01  0.00
  HS02004478WS02006287    1.00   0.06  0.00  0.00  0.86  0.08  0.00  0.00  0.77  0.00
  HS02004817HS02004807    1.00   0.00  0.05  0.00  0.95  0.00  0.00  0.00  0.00  0.00
  HS02004807HS02004802    1.00   0.05  0.00  0.00  0.95  0.00  0.00  0.00  0.01  0.00
  YS02001759YS02001757    1.00   0.00  0.00  0.00  1.00  0.00  0.00  0.00  0.17  0.00
  YS02001762YS02001759    1.00   0.00  0.00  0.00  1.00  0.00  0.00  0.00  0.04  0.00
  YS02001765YS02001762    1.00   0.00  0.00  0.00  1.00  0.00  0.00  0.00  0.22  0.00
  YS02001770YS02001767    1.00   0.00  0.00  0.00  1.00  0.00  0.00  0.00  0.00  0.00
  YS02001774YS02001770    1.00   0.00  0.06  0.00  0.94  0.00  0.00  0.00  0.07  0.00
  YS02001779YS02001774    1.00   0.00  0.00  0.00  1.00  0.00  0.00  0.00  0.26  0.00
  YS02001649YS02001757    1.00   0.00  0.00  0.00  1.00  0.00  0.00  0.00  0.19  0.00
  YS02001767YS02001765    1.00   0.00  0.00  0.00  1.00  0.00  0.00  0.00  0.01  0.00
  YS02006561YS02001783    1.00   0.08  0.00  0.00  0.00  0.92  0.00  0.00  0.73  0.00
  YS02001783YS02001784    1.00   0.00  0.08  0.00  0.92  0.00  0.00  0.00  0.00  0.00
  YS02001784YS02001785    1.00   0.00  0.00  0.00  1.00  0.00  0.00  0.00  0.25  0.00
  YS02001788YS02001790    1.00   0.00  0.00  0.00  0.08  0.92  0.00  0.00  0.76  0.00
  YS02001790YS02001791    1.00   0.00  0.00  0.00  0.02  0.98  0.00  0.00  0.56  0.00
  YS02001791YS02001793    1.00   0.00  0.00  0.00  0.00  1.00  0.00  0.00  0.00  0.00
  YS02001910YS02001907    1.00   0.00  0.00  0.00  0.97  0.00  0.00  0.03  0.13  0.00
  YS02001786YS02001788    1.00   0.00  0.00  0.00  0.08  0.92  0.00  0.00  0.00  0.00
  YS02001915YS02001910    1.00   0.00  0.00  0.00  0.99  0.01  0.00  0.00  0.24  0.00
  YS02001918YS02001915    1.00   0.00  0.01  0.00  0.98  0.02  0.00  0.00  0.81  0.00
  YS02001923YS02001920    1.00   0.00  0.00  0.00  1.00  0.00  0.00  0.00  1.00  0.00
  YS02001926YS02001923    1.00   0.00  0.04  0.00  0.00  0.00  0.96  0.00  0.00  0.00
  YS02001929YS02001926    1.00   0.00  0.05  0.00  0.95  0.00  0.00  0.00  0.87  0.00
  YS02001920YS02001918    1.00   0.00  0.01  0.00  0.99  0.00  0.00  0.00  0.00  0.00
  YS02001629YS02163301    1.00   0.07  0.00  0.00  0.93  0.00  0.00  0.00  0.00  0.00
  YS02001619YS02001622    1.00   0.05  0.00  0.00  0.95  0.00  0.00  0.00  0.00  0.00
  YS02001622YS02001625    1.00   0.05  0.00  0.00  0.95  0.00  0.00  0.00  0.13  0.00
  YS02001625YS02001629    1.00   0.05  0.03  0.00  0.91  0.00  0.01  0.00  0.00  0.00
  YS02163301YS02001633    1.00   0.00  0.07  0.00  0.93  0.00  0.00  0.00  0.00  0.00
  YS02163601YS02164001    1.00   0.00  0.04  0.00  0.96  0.00  0.00  0.00  0.00  0.00
  YS02164001YS02001641    1.00   0.01  0.03  0.00  0.96  0.00  0.00  0.00  0.07  0.00
  YS02001641YS02001644    1.00   0.00  0.01  0.00  0.99  0.00  0.00  0.00  0.00  0.00
  YS02001647YS02001649    1.00   0.00  0.07  0.00  0.92  0.00  0.00  0.00  0.01  0.00
  YS02006553YS02006556    1.00   0.02  0.00  0.00  0.98  0.00  0.00  0.00  0.03  0.00
  YS02006556YS02006558    1.00   0.00  0.00  0.00  1.00  0.00  0.00  0.00  0.00  0.00
  YSB6556YSB1171          1.00   0.03  0.02  0.00  0.95  0.00  0.00  0.00  0.00  0.00
  YS02001907YS02006553    1.00   0.00  0.02  0.00  0.97  0.00  0.00  0.00  0.00  0.00
  YS02006558YS02006561    1.00   0.08  0.00  0.00  0.00  0.92  0.00  0.00  0.70  0.00
  YS02001633YS02163601    1.00   0.00  0.01  0.00  0.99  0.00  0.00  0.00  0.20  0.00
  YS02001644YS02001647    1.00   0.00  0.07  0.00  0.92  0.00  0.00  0.00  0.00  0.00
  YS02001745YS02001748    1.00   0.00  0.00  0.00  0.85  0.02  0.00  0.13  0.57  0.00
  YS02001748YS02001751    1.00   0.00  0.00  0.00  0.98  0.02  0.00  0.00  0.24  0.00
  YS02001751YS02001754    1.00   0.00  0.00  0.00  0.92  0.00  0.00  0.08  0.02  0.00
  YS02001754YS02001757    1.00   0.00  0.00  0.00  0.99  0.01  0.00  0.00  0.26  0.00
  YS02001882YS02001884    1.00   0.06  0.00  0.00  0.93  0.00  0.00  0.00  0.00  0.00
  YS02001884YS02001887    1.00   0.04  0.01  0.00  0.95  0.00  0.00  0.00  0.00  0.00
  YS02001890YS02001895    1.00   0.00  0.07  0.00  0.93  0.00  0.00  0.00  0.00  0.00
  YS02001895YS02001898    1.00   0.07  0.00  0.00  0.92  0.00  0.01  0.00  0.00  0.00
  YS02001898YS02001901    1.00   0.07  0.00  0.00  0.93  0.00  0.00  0.00  0.02  0.00
  YS02001901YS02001904    1.00   0.07  0.00  0.00  0.93  0.00  0.00  0.00  0.00  0.00
  YS02001904YS02001907    1.00   0.00  0.06  0.00  0.93  0.00  0.00  0.00  0.00  0.00
  YS02001887YS02001890    1.00   0.00  0.00  0.00  0.97  0.00  0.03  0.00  0.00  0.00
  YS02001652YS02001649    1.00   0.00  0.00  0.00  1.00  0.00  0.00  0.00  0.26  0.00
  YS02001655YS02001652    1.00   0.00  0.00  0.00  0.92  0.00  0.00  0.08  0.02  0.00
  YS02001658YS02001655    1.00   0.00  0.06  0.00  0.91  0.03  0.00  0.00  0.11  0.00
  YS02001661YS02001658    1.00   0.06  0.00  0.00  0.85  0.09  0.00  0.00  0.50  0.00
  YS02001664YS02001661    1.00   0.05  0.00  0.00  0.74  0.22  0.00  0.00  0.86  0.00
  YSB1154YSB6556          1.00   0.05  0.00  0.00  0.95  0.00  0.00  0.00  0.02  0.00
  YSB1174YSB1171          1.00   0.03  0.01  0.00  0.96  0.00  0.00  0.00  0.00  0.00
  YSB1171HS02004479       1.00   0.03  0.00  0.00  0.97  0.00  0.00  0.00  0.13  0.00
  HS02004881HS02006253    1.00   0.03  0.00  0.00  0.69  0.02  0.00  0.26  0.51  0.00
  YS02001793JiankangQianchi    1.00   0.00  0.00  0.00  0.37  0.63  0.00  0.00  0.42  0.00
  YS02001757CaochengTiaoxuchi    1.00   0.00  0.09  0.00  0.91  0.00  0.00  0.00  0.00  0.00
  WSF200WS02003060        1.00   0.00  0.05  0.00  0.72  0.23  0.00  0.00  0.38  0.00
  1                       1.00   0.00  0.00  0.00  0.00  1.00  0.00  0.00  0.41  0.00
  2                       1.00   0.75  0.00  0.00  0.00  0.25  0.00  0.00  0.06  0.00
  3                       1.00   0.24  0.00  0.00  0.00  0.76  0.00  0.00  0.38  0.00
  4                       1.00   1.00  0.00  0.00  0.00  0.00  0.00  0.00  0.00  0.00
  
  
  *************************
  Conduit Surcharge Summary
  *************************
  
  ----------------------------------------------------------------------------
                                                           Hours        Hours 
                         --------- Hours Full --------   Above Full   Capacity
  Conduit                Both Ends  Upstream  Dnstream   Normal Flow   Limited
  ----------------------------------------------------------------------------
  WS02006229WS02006228        0.83      1.01      0.83      3.57         0.83
  WS02006256WS02006235        5.41      5.41      7.34      3.26         0.01
  WS02006252WS02006251        0.93      0.93      1.71      1.51         0.01
  WS02006251WS02006249        0.01      0.01      0.01      0.94         0.01
  WS02006249WS02006248        0.01      0.01      0.01      3.55         0.01
  WS02006247WS02006245        0.01      0.01      0.01      4.10         0.01
  WS02006245WS02006243        0.01      0.01      0.01      0.07         0.01
  WS02006243WS02006242        0.01      0.01      0.48      0.01         0.01
  WS02006242WS02006240        0.11      0.11      0.78      1.70         0.01
  WS02006240WS02006239        0.15      0.15      0.19      0.49         0.01
  WS02006239WS02006238        0.64      0.65      0.72      0.55         0.10
  WS02006238WS02006235        0.55      0.55      0.91      0.01         0.01
  WS02006235WS02006234        0.14      0.14      0.43      5.41         0.01
  WS02006234WS02006232        0.23      0.23      1.02      0.01         0.01
  WS02006232WS02006231        0.01      0.01      1.02      0.01         0.01
  WS02006231WS02006230        0.01      0.01      0.01      5.45         0.01
  WS02006230WS02006229        1.75      3.06      1.75      5.63         1.75
  WS02006228WS02006109        0.89      1.31      0.89      4.87         0.89
  WS02006112WS02006115        0.01      0.01      0.26      0.01         0.01
  WS02006111WS02006112        0.01      0.01      3.77      0.01         0.01
  WS02006110WS02006113        0.01      0.01      1.15      0.01         0.01
  WS02006109WS02006110        0.01      0.01      1.31      0.01         0.01
  WS02004405WS02004406        0.01      0.01      0.01      0.11         0.01
  WS02004404WS02004405        0.01      0.01      0.01      5.39         0.01
  WS02003072WS02003073        0.01      0.01      0.01      4.00         0.01
  YS02001759YS02001757        5.15      5.15      5.31      0.01         0.01
  YS02001762YS02001759        5.08      5.08      5.15      0.01         0.01
  YS02001765YS02001762        4.74      4.74      5.08      0.01         0.01
  YS02001770YS02001767        4.01      4.02      4.19      0.01         0.51
  YS02001774YS02001770        2.19      2.19      4.99      0.01         0.01
  YS02001779YS02001774        0.03      0.03      4.99      0.01         0.01
  YS02001649YS02001757        5.10      5.10      5.31      0.01         0.01
  YS02001767YS02001765        4.19      4.19      4.74      0.01         0.01
  YS02001629YS02163301        1.75      1.75      2.51      0.01         0.01
  YS02001622YS02001625        0.01      0.01      1.05      0.01         0.01
  YS02001625YS02001629        0.01      0.01      1.05      0.01         0.01
  YS02163301YS02001633        2.51      2.51      4.78      0.01         0.01
  YS02163601YS02164001        4.72      4.72      5.10      0.01         0.01
  YS02164001YS02001641        4.72      4.72      4.90      0.01         0.01
  YS02001641YS02001644        4.90      4.90      4.94      0.01         0.38
  YS02001647YS02001649        0.83      0.83      5.10      0.01         0.01
  YS02001633YS02163601        4.42      4.42      5.10      0.01         0.01
  YS02001644YS02001647        0.83      0.83      4.94      0.01         0.01
  YS02001751YS02001754        0.01      0.01      0.02      0.01         0.01
  YS02001754YS02001757        0.94      0.94      5.31      0.01         0.01
  YS02001652YS02001649        1.09      1.09      5.10      0.01         0.01
  YS02001655YS02001652        0.01      0.01      0.42      0.01         0.01
  YS02001793JiankangQianchi        0.01      0.01      1.12      0.01         0.01
  YS02001757CaochengTiaoxuchi        0.01      0.01      5.31      0.01         0.01
  
  
  ***************
  Pumping Summary
  ***************
  
  ---------------------------------------------------------------------------------------------------------
                                                  Min       Avg       Max     Total     Power    % Time Off
                        Percent   Number of      Flow      Flow      Flow    Volume     Usage    Pump Curve
  Pump                 Utilized   Start-Ups       LPS       LPS       LPS  10^6 ltr     Kw-hr    Low   High
  ---------------------------------------------------------------------------------------------------------
  CC-Pump-1               49.37           6      0.00    135.62    200.00     1.913      6.40    0.0   13.8
  CC-Pump-2               57.87           7      0.00    128.61    200.00     2.101      6.90    0.0   12.4
  JK-Pump-1               65.94           8      0.00    119.46    300.00     1.613     30.57    0.0    0.0
  JK-Pump-2               72.34           8      0.00    148.46    300.00     2.327     41.71    0.0    0.0
  XR-Pump-1               80.84           6      0.00     70.95     95.00     1.624     15.27    0.0    0.0
  XR-Pump-2               85.09           4      0.00     73.72     95.00     1.796     20.09    0.0    0.0
  XR-Pump-3               82.94          10      0.00     59.59     95.00     1.397     13.00    0.0    0.0
  XR-Pump-4               72.32          11      0.00     55.66     95.00     1.283     13.58    0.0    0.0
  

  Analysis begun on:  Tue Dec 21 11:50:07 2021
  Analysis ended on:  Tue Dec 21 11:50:10 2021
  Total elapsed time: 00:00:03