
  EPA STORM WATER MANAGEMENT MODEL - VERSION 5.1 (Build 5.3.0.dev0)
  --------------------------------------------------------------

  WARNING 04: minimum elevation drop used for Conduit WS02004404WS02004405
  WARNING 03: negative offset ignored for Link YS02001904YS02001907
  
  *********************************************************
  NOTE: The summary statistics displayed in this report are
  based on results found at every computational time step,  
  not just on results from each reporting time step.
  *********************************************************
  
  ****************
  Analysis Options
  ****************
  Flow Units ............... LPS
  Process Models:
    Rainfall/Runoff ........ YES
    RDII ................... NO
    Snowmelt ............... NO
    Groundwater ............ NO
    Flow Routing ........... YES
    Ponding Allowed ........ NO
    Water Quality .......... NO
  Infiltration Method ...... HORTON
  Flow Routing Method ...... DYNWAVE
  Surcharge Method ......... EXTRAN
  Starting Date ............ 08/28/2015 08:00:00
  Ending Date .............. 08/28/2015 15:50:00
  Antecedent Dry Days ...... 8.0
  Report Time Step ......... 00:01:00
  Wet Time Step ............ 00:01:00
  Dry Time Step ............ 00:01:00
  Routing Time Step ........ 5.00 sec
  Variable Time Step ....... YES
  Maximum Trials ........... 8
  Number of Threads ........ 4
  Head Tolerance ........... 0.001500 m
  
  
  **************************        Volume         Depth
  Runoff Quantity Continuity     hectare-m            mm
  **************************     ---------       -------
  Total Precipitation ......         2.984         6.533
  Evaporation Loss .........         0.000         0.000
  Infiltration Loss ........         0.753         1.648
  Surface Runoff ...........         1.324         2.899
  Final Storage ............         0.907         1.987
  Continuity Error (%) .....        -0.018
  
  
  **************************        Volume        Volume
  Flow Routing Continuity        hectare-m      10^6 ltr
  **************************     ---------     ---------
  Dry Weather Inflow .......         0.616         6.165
  Wet Weather Inflow .......         1.323        13.235
  Groundwater Inflow .......         0.000         0.000
  RDII Inflow ..............         0.000         0.000
  External Inflow ..........         0.102         1.024
  External Outflow .........         1.505        15.048
  Flooding Loss ............         0.175         1.753
  Evaporation Loss .........         0.000         0.000
  Exfiltration Loss ........         0.000         0.000
  Initial Stored Volume ....         0.076         0.761
  Final Stored Volume ......         0.529         5.290
  Continuity Error (%) .....        -4.284
  
  
  *************************
  Highest Continuity Errors
  *************************
  Node HS02004842 (26.48%)
  Node YS02001774 (25.61%)
  Node JK-storage (-21.34%)
  Node YS02001884 (20.73%)
  Node YSB1171 (6.19%)
  
  
  ***************************
  Time-Step Critical Elements
  ***************************
  Link WS02006252WS02006251 (52.74%)
  Link 3 (34.63%)
  Link WS02006238WS02006235 (4.44%)
  Link WS02006280WS02006229 (2.55%)
  
  
  ********************************
  Highest Flow Instability Indexes
  ********************************
  Link WS02006113WS02006111 (44)
  Link WS02006111WS02006112 (19)
  Link YS02006558YS02006561 (17)
  Link YS02164001YS02001641 (11)
  Link YS02001641YS02001644 (10)
  
  
  *************************
  Routing Time Step Summary
  *************************
  Minimum Time Step           :     0.47 sec
  Average Time Step           :     0.98 sec
  Maximum Time Step           :     5.00 sec
  Percent in Steady State     :    -0.00
  Average Iterations per Step :     3.14
  Percent Not Converging      :    12.92
  
  
  ***************************
  Subcatchment Runoff Summary
  ***************************
  
  ------------------------------------------------------------------------------------------------------------------------------
                            Total      Total      Total      Total     Imperv       Perv      Total       Total     Peak  Runoff
                           Precip      Runon       Evap      Infil     Runoff     Runoff     Runoff      Runoff   Runoff   Coeff
  Subcatchment                 mm         mm         mm         mm         mm         mm         mm    10^6 ltr      LPS
  ------------------------------------------------------------------------------------------------------------------------------
  sub0                       6.53       0.00       0.00       0.46       4.81       0.00       4.81        0.00     1.70   0.736
  sub1                       6.53       0.00       0.00       0.72       4.56       0.00       4.56        0.03     8.92   0.698
  sub2                       6.53       0.00       0.00       2.42       3.21       0.00       3.21        0.03     7.90   0.491
  sub3                       6.53       0.00       0.00       2.42       3.17       0.00       3.17        0.07    16.25   0.486
  sub4                       6.53       0.00       0.00       0.72       4.42       0.00       4.42        0.09    18.23   0.676
  sub5                       6.53       0.00       0.00       0.46       4.76       0.00       4.76        0.05    15.87   0.729
  sub7                       6.53       0.00       0.00       0.59       4.69       0.00       4.69        0.02     5.60   0.718
  sub8                       6.53       0.00       0.00       0.59       4.68       0.00       4.68        0.03     9.88   0.717
  sub9                       6.53       0.00       0.00       0.59       4.68       0.00       4.68        0.02     7.33   0.716
  sub10                      6.53       0.00       0.00       0.52       4.72       0.00       4.72        0.05    15.85   0.722
  sub11                      6.53       0.00       0.00       0.52       4.74       0.00       4.74        0.06    18.60   0.725
  sub12                      6.53       0.00       0.00       0.85       4.49       0.00       4.49        0.04    15.74   0.688
  sub14                      6.53       0.00       0.00       0.59       4.68       0.00       4.68        0.04    14.32   0.716
  sub15                      6.53       0.00       0.00       1.96       3.59       0.00       3.59        0.06    19.42   0.550
  sub16                      6.53       0.00       0.00       2.16       3.46       0.00       3.46        0.04    13.85   0.529
  sub17                      6.53       0.00       0.00       2.09       3.51       0.00       3.51        0.03    11.18   0.537
  sub22                      6.53       0.00       0.00       2.81       2.94       0.00       2.94        0.19    63.64   0.449
  sub23                      6.53       0.00       0.00       2.42       3.25       0.00       3.25        0.15    54.16   0.497
  sub60                      6.53       0.00       0.00       0.78       3.24       0.00       3.24        0.98    93.37   0.497
  sub61                      6.53       0.00       0.00       1.11       3.44       0.00       3.44        1.06   116.86   0.527
  sub62                      6.53       0.00       0.00       0.52       3.70       0.00       3.70        1.14   119.50   0.567
  sub63                      6.53       0.00       0.00       1.89       3.06       0.00       3.06        0.93   108.99   0.468
  sub64                      6.53       0.00       0.00       0.98       3.10       0.00       3.10        0.94    88.71   0.475
  sub65                      6.53       0.00       0.00       0.85       3.14       0.00       3.14        0.97    90.05   0.481
  sub66                      6.53       0.00       0.00       1.89       2.70       0.00       2.70        0.83    81.23   0.414
  sub67                      6.53       0.00       0.00       0.52       4.05       0.00       4.05        1.25   153.14   0.619
  sub68                      6.53       0.00       0.00       0.91       3.66       0.00       3.66        1.13   129.14   0.560
  sub69                      6.53       0.00       0.00       0.98       3.92       0.00       3.92        0.92   128.07   0.601
  sub70                      6.53       4.01       0.00       3.58       4.89       0.00       4.89        1.12   104.96   0.464
  sub71                      6.53       0.00       0.00       0.52       3.55       0.00       3.55        0.84    83.47   0.543
  sub72                      6.53       0.00       0.00       0.46       2.55       0.00       2.55        0.52    39.79   0.390
  sub73                      6.53       4.76       0.00       3.84       5.03       0.00       5.03        1.18    90.59   0.445
  sub74                      6.53       0.00       0.00       4.90       1.18       0.00       1.18        0.47    71.42   0.181
  
  
  ******************
  Node Depth Summary
  ******************
  
  ---------------------------------------------------------------------------------
                                 Average  Maximum  Maximum  Time of Max    Reported
                                   Depth    Depth      HGL   Occurrence   Max Depth
  Node                 Type       Meters   Meters   Meters  days hr:min      Meters
  ---------------------------------------------------------------------------------
  WS02001211           JUNCTION     0.62     0.75     5.58     0  01:51        0.75
  WS02001212           JUNCTION     0.35     0.44     5.51     0  01:52        0.44
  WS02001213           JUNCTION     0.58     0.69     5.46     0  02:33        0.69
  WS02003069           JUNCTION     0.40     0.55     5.13     0  02:34        0.55
  WS02003072           JUNCTION     0.47     0.61     4.98     0  02:35        0.61
  WS02003073           JUNCTION     0.28     0.37     4.44     0  02:35        0.37
  WS02003060           JUNCTION     0.36     0.48     5.41     0  02:33        0.48
  WS02003066           JUNCTION     0.22     0.30     5.86     0  02:33        0.30
  WS02003059           JUNCTION     0.64     0.76     5.44     0  02:34        0.76
  WS02003067           JUNCTION     0.54     0.71     6.03     0  02:33        0.71
  WS02004401           JUNCTION     0.64     0.87     6.87     0  02:29        0.87
  WS02004402           JUNCTION     0.67     0.90     6.86     0  02:29        0.90
  WS02004403           JUNCTION     0.69     0.91     6.84     0  02:29        0.91
  WS02004404           JUNCTION     0.77     0.98     6.83     0  02:29        0.98
  WS02004406           JUNCTION     0.77     0.97     6.80     0  02:30        0.97
  WS02004409           JUNCTION     0.45     0.68     6.45     0  02:32        0.68
  WS02004410           JUNCTION     0.47     0.70     6.42     0  02:32        0.70
  WS02004411           JUNCTION     0.49     0.70     6.38     0  02:32        0.70
  WS02004412           JUNCTION     0.51     0.71     6.35     0  02:32        0.71
  WS02004413           JUNCTION     0.67     0.87     6.34     0  02:33        0.87
  WS02004405           JUNCTION     0.76     0.97     6.82     0  02:29        0.97
  WS02006109           JUNCTION     0.72     1.02     7.64     0  02:23        1.01
  WS02006110           JUNCTION     0.71     0.95     7.54     0  02:23        0.95
  WS02006111           JUNCTION     0.21     0.30     7.00     0  02:24        0.30
  WS02006112           JUNCTION     0.80     1.08     6.97     0  02:29        1.07
  WS02006113           JUNCTION     0.32     0.47     7.37     0  02:24        0.47
  WS02006115           JUNCTION     0.53     0.78     6.92     0  02:29        0.78
  WS02006116           JUNCTION     0.61     0.85     6.89     0  02:29        0.85
  WS02006230           JUNCTION     0.67     1.08     7.83     0  02:23        1.07
  WS02006231           JUNCTION     0.45     0.81     7.94     0  02:22        0.74
  WS02006232           JUNCTION     0.58     0.95     7.99     0  02:23        0.86
  WS02006234           JUNCTION     0.49     0.96     8.11     0  02:23        0.80
  WS02006235           JUNCTION     0.53     0.94     8.11     0  02:23        0.83
  WS02006238           JUNCTION     0.55     0.96     8.11     0  02:23        0.86
  WS02006240           JUNCTION     0.44     0.89     8.18     0  02:22        0.77
  WS02006242           JUNCTION     0.50     1.03     8.30     0  02:22        0.82
  WS02006243           JUNCTION     0.38     0.71     8.13     0  02:25        0.70
  WS02006245           JUNCTION     0.36     0.68     8.16     0  02:23        0.67
  WS02006247           JUNCTION     0.38     1.47     8.97     0  02:23        0.68
  WS02006248           JUNCTION     0.33     0.65     8.24     0  02:23        0.61
  WS02006249           JUNCTION     0.36     0.62     8.22     0  02:23        0.61
  WS02006239           JUNCTION     0.50     1.05     8.26     0  02:22        0.82
  WS02006251           JUNCTION     0.35     0.64     8.31     0  02:40        0.64
  WS02006252           JUNCTION     0.32     0.59     8.83     0  03:51        0.59
  WS02006253           JUNCTION     0.38     0.67     8.32     0  02:40        0.67
  WS02006256           JUNCTION     1.00     1.21     8.15     0  02:23        1.21
  WS02004138           JUNCTION     0.14     0.19     7.44     0  01:50        0.19
  WS02004407           JUNCTION     0.21     0.30     6.62     0  02:30        0.30
  WS02006228           JUNCTION     0.71     1.08     7.73     0  02:23        1.07
  WS02006229           JUNCTION     0.68     1.08     7.77     0  02:23        1.07
  WS02006280           JUNCTION     0.06     0.16     8.43     0  02:17        0.16
  WS02006284           JUNCTION     0.35     0.50     8.90     0  02:16        0.50
  WS02006287           JUNCTION     0.08     0.23     9.19     0  02:16        0.23
  WSF200               JUNCTION     0.20     0.32     5.55     0  02:32        0.32
  HS02004901           JUNCTION     0.11     0.25    10.07     0  02:14        0.25
  HS02004881           JUNCTION     0.01     0.03     9.06     0  02:16        0.03
  HS02004876           JUNCTION     0.04     0.11     9.14     0  02:13        0.11
  HS02004870           JUNCTION     0.01     0.05     9.33     0  02:17        0.05
  HS02004862           JUNCTION     0.01     0.05     9.44     0  02:17        0.05
  HS02004856           JUNCTION     0.07     0.11     9.53     0  02:17        0.11
  HS02004852           JUNCTION     0.01     0.03     9.54     0  02:18        0.03
  HS02004848           JUNCTION     0.01     0.03     9.63     0  02:16        0.03
  HS02004842           JUNCTION     0.33     0.36     9.63     0  02:16        0.36
  HS02004837           JUNCTION     0.03     0.05     9.63     0  02:16        0.05
  HS02004830           JUNCTION     0.04     0.07     9.53     0  02:17        0.07
  HS02004824           JUNCTION     0.02     0.04     9.45     0  02:20        0.04
  HS02004817           JUNCTION     0.42     0.54     9.39     0  02:17        0.54
  HS02004807           JUNCTION     0.11     0.22     9.39     0  02:17        0.22
  HS02004802           JUNCTION     0.15     0.25     9.38     0  02:17        0.25
  HS02004799           JUNCTION     0.10     0.28     9.49     0  02:15        0.28
  HS02004792           JUNCTION     0.03     0.11     9.63     0  02:14        0.11
  HS02004788           JUNCTION     0.02     0.08     9.98     0  02:15        0.08
  HS02004785           JUNCTION     0.04     0.15    10.05     0  02:14        0.15
  HS02004777           JUNCTION     0.13     0.27    10.07     0  02:14        0.27
  HS02004770           JUNCTION     0.10     0.24    10.07     0  02:14        0.24
  HS02004480           JUNCTION     0.07     0.22     9.46     0  02:15        0.22
  HS02004479           JUNCTION     0.10     0.26     9.46     0  02:15        0.26
  HS02004478           JUNCTION     0.05     0.14     9.37     0  02:16        0.14
  YS02001745           JUNCTION     0.29     0.49     8.01     0  06:25        0.49
  YS02001748           JUNCTION     0.65     0.93     8.00     0  06:24        0.92
  YS02001751           JUNCTION     0.83     1.79     8.66     0  03:58        1.12
  YS02001754           JUNCTION     1.07     1.83     8.43     0  03:58        1.39
  YS02001762           JUNCTION     1.27     1.68     8.08     0  03:58        1.59
  YS02001765           JUNCTION     1.22     1.62     8.07     0  03:58        1.54
  YS02001767           JUNCTION     1.19     1.59     8.08     0  03:58        1.51
  YS02001770           JUNCTION     1.18     1.63     8.13     0  03:58        1.50
  YS02001774           JUNCTION     1.25     1.73     8.15     0  03:58        1.58
  YS02001779           JUNCTION     1.00     1.48     8.16     0  03:58        1.31
  YS02001882           JUNCTION     0.30     0.51     7.22     0  02:53        0.51
  YS02001884           JUNCTION     0.40     0.61     7.22     0  02:53        0.61
  YS02001759           JUNCTION     1.30     1.72     8.08     0  03:58        1.63
  YS02001887           JUNCTION     0.47     0.68     7.22     0  02:52        0.68
  YS02001890           JUNCTION     0.50     0.72     7.22     0  02:52        0.71
  YS02001898           JUNCTION     0.27     0.47     7.21     0  02:51        0.47
  YS02001901           JUNCTION     0.39     0.60     7.21     0  02:52        0.60
  YS02001904           JUNCTION     0.37     0.57     7.20     0  02:51        0.57
  YS02001907           JUNCTION     0.70     0.91     7.20     0  02:50        0.91
  YS02001910           JUNCTION     0.49     0.70     7.20     0  02:52        0.70
  YS02001915           JUNCTION     0.29     0.49     7.20     0  02:51        0.49
  YS02001918           JUNCTION     0.08     0.13     7.20     0  02:51        0.13
  YS02001619           JUNCTION     0.79     1.07     8.00     0  06:21        1.07
  YS02001629           JUNCTION     1.13     1.45     8.00     0  06:21        1.45
  YS02001641           JUNCTION     1.24     1.56     7.99     0  06:21        1.55
  YS02001644           JUNCTION     1.24     1.56     7.99     0  06:21        1.56
  YS02001652           JUNCTION     1.09     1.65     8.25     0  03:49        1.39
  YS02001655           JUNCTION     0.85     2.02     8.87     0  03:48        1.14
  YS02001920           JUNCTION     0.18     0.23     7.23     0  03:01        0.23
  YS02001923           JUNCTION     0.07     0.09     7.35     0  03:01        0.09
  YS02001926           JUNCTION     0.15     0.19     7.63     0  03:01        0.19
  YS02001929           JUNCTION     0.07     0.10     7.79     0  03:01        0.10
  YS02001658           JUNCTION     0.59     0.85     7.99     0  06:23        0.85
  YS02001661           JUNCTION     0.39     0.59     7.99     0  06:23        0.59
  YS02001664           JUNCTION     0.07     0.13     8.05     0  02:43        0.13
  YS02001622           JUNCTION     0.81     1.10     8.00     0  06:21        1.09
  YS02001633           JUNCTION     1.22     1.54     8.00     0  06:21        1.54
  YS02001649           JUNCTION     1.28     1.63     8.02     0  03:58        1.60
  YS02001757           JUNCTION     1.40     1.81     8.07     0  03:58        1.73
  YS02001895           JUNCTION     0.27     0.47     7.21     0  02:52        0.47
  YS02001625           JUNCTION     1.09     1.39     7.99     0  06:24        1.39
  YS02163301           JUNCTION     1.16     1.48     8.00     0  06:21        1.48
  YS02163601           JUNCTION     1.28     1.60     8.00     0  06:21        1.59
  YS02164001           JUNCTION     1.22     1.54     7.99     0  06:21        1.53
  YS02001647           JUNCTION     1.07     1.40     8.01     0  03:49        1.38
  YSB1154              JUNCTION     0.24     0.40     9.46     0  02:15        0.40
  YSB6556              JUNCTION     0.14     0.29     9.46     0  02:15        0.29
  YSB1174              JUNCTION     0.19     0.35     9.46     0  02:15        0.35
  YSB1171              JUNCTION     0.39     0.56     9.46     0  02:15        0.56
  YS02006553           JUNCTION     0.70     0.92     7.20     0  02:51        0.92
  YS02006561           JUNCTION     0.15     0.25     6.91     0  03:00        0.25
  YS02006556           JUNCTION     0.67     0.89     7.20     0  02:50        0.89
  YS02006558           JUNCTION     0.72     0.93     7.20     0  02:52        0.93
  YS02001783           JUNCTION     0.29     0.71     6.85     0  03:02        0.70
  YS02001784           JUNCTION     0.33     0.78     6.85     0  03:01        0.72
  YS02001786           JUNCTION     0.30     0.76     6.79     0  03:02        0.73
  YS02001788           JUNCTION     0.25     0.84     6.82     0  03:02        0.80
  YS02001790           JUNCTION     0.35     1.96     7.60     0  02:59        1.08
  YS02001791           JUNCTION     0.34     2.54     8.01     0  02:58        1.18
  YS02001793           JUNCTION     0.47     2.34     7.17     0  02:56        1.79
  WS02004139           JUNCTION     0.56     0.69     5.60     0  01:52        0.69
  WSC                  OUTFALL      0.28     0.37     1.04     0  02:36        0.37
  3                    OUTFALL      0.07     0.21     6.21     0  02:23        0.21
  4                    OUTFALL      0.02     0.12     7.12     0  02:23        0.11
  5                    OUTFALL      0.00     0.00     5.00     0  00:00        0.00
  JK-storage           STORAGE      2.09     5.80     6.60     0  03:00        5.80
  CC-storage           STORAGE      0.65     0.98     7.98     0  06:24        0.98
  XR-storage           STORAGE      6.50     7.72     5.72     0  03:51        7.72
  
  
  *******************
  Node Inflow Summary
  *******************
  
  -------------------------------------------------------------------------------------------------
                                  Maximum  Maximum                  Lateral       Total        Flow
                                  Lateral    Total  Time of Max      Inflow      Inflow     Balance
                                   Inflow   Inflow   Occurrence      Volume      Volume       Error
  Node                 Type           LPS      LPS  days hr:min    10^6 ltr    10^6 ltr     Percent
  -------------------------------------------------------------------------------------------------
  WS02001211           JUNCTION      7.35   377.39     0  01:50       0.207        6.13       0.479
  WS02001212           JUNCTION      0.00   371.34     0  01:51           0        6.11       0.276
  WS02001213           JUNCTION      0.00   370.93     0  01:52           0        6.09       0.332
  WS02003069           JUNCTION      0.32   840.04     0  02:34     0.00902        12.7       0.198
  WS02003072           JUNCTION      0.00   840.10     0  02:34           0        12.7       0.255
  WS02003073           JUNCTION      1.82   842.17     0  02:35      0.0514        12.7       0.285
  WS02003060           JUNCTION     16.53   839.11     0  02:33       0.466        12.7       0.188
  WS02003066           JUNCTION      0.00   558.98     0  02:33           0        6.25       0.063
  WS02003059           JUNCTION      0.00   367.62     0  01:52           0        6.07       0.550
  WS02003067           JUNCTION      0.00   558.93     0  02:33           0        6.26       0.135
  WS02004401           JUNCTION      0.00   567.71     0  02:27           0        6.46       0.276
  WS02004402           JUNCTION      0.00   565.31     0  02:29           0        6.44       0.266
  WS02004403           JUNCTION      0.00   565.13     0  02:29           0        6.42       0.247
  WS02004404           JUNCTION      0.16   565.07     0  02:29     0.00457        6.41       0.191
  WS02004406           JUNCTION      0.00   564.95     0  02:29           0        6.38       0.469
  WS02004409           JUNCTION      0.00   564.75     0  02:30           0        6.35       0.208
  WS02004410           JUNCTION      0.00   561.23     0  02:30           0        6.33       0.244
  WS02004411           JUNCTION      0.00   559.77     0  02:32           0        6.32       0.257
  WS02004412           JUNCTION      0.00   559.22     0  02:32           0         6.3       0.285
  WS02004413           JUNCTION      0.00   559.03     0  02:32           0        6.28       0.432
  WS02004405           JUNCTION      0.04   564.94     0  02:29     0.00107         6.4       0.287
  WS02006109           JUNCTION      1.23   578.19     0  02:23      0.0347        6.52       0.227
  WS02006110           JUNCTION      0.00   578.18     0  02:23           0         6.5       0.225
  WS02006111           JUNCTION      0.00   601.10     0  02:24           0        6.48       0.041
  WS02006112           JUNCTION     11.18   589.98     0  02:24      0.0301        6.51       0.383
  WS02006113           JUNCTION      0.00   578.27     0  02:23           0        6.49       0.093
  WS02006115           JUNCTION      0.00   588.69     0  02:23           0        6.49       0.232
  WS02006116           JUNCTION      0.00   571.90     0  02:26           0        6.47       0.230
  WS02006230           JUNCTION     10.28   395.00     0  04:00        0.29        5.51       0.189
  WS02006231           JUNCTION      0.00   385.27     0  03:54           0        5.22       0.089
  WS02006232           JUNCTION      0.00   385.45     0  03:54           0        5.23       0.206
  WS02006234           JUNCTION      0.00   389.11     0  03:54           0        5.24       0.042
  WS02006235           JUNCTION      0.00   390.15     0  03:53           0        5.29       0.138
  WS02006238           JUNCTION      0.00   343.37     0  04:10           0        3.42       0.095
  WS02006240           JUNCTION      0.00   337.38     0  04:10           0        3.38       0.089
  WS02006242           JUNCTION      0.00   337.06     0  02:21           0        3.37       0.117
  WS02006243           JUNCTION      0.00   352.88     0  02:21           0        3.34      -0.508
  WS02006245           JUNCTION      0.00   363.51     0  02:21           0        3.35       0.214
  WS02006247           JUNCTION      0.00   372.33     0  02:20           0        3.35       0.019
  WS02006248           JUNCTION      0.00   377.38     0  02:20           0        3.34      -0.110
  WS02006249           JUNCTION      0.00   435.82     0  02:20           0        3.61       0.173
  WS02006239           JUNCTION      0.00   342.04     0  04:10           0         3.4       0.104
  WS02006251           JUNCTION      0.08   437.31     0  02:20     0.00217        3.64      -0.009
  WS02006252           JUNCTION      0.00   400.00     0  03:50           0        3.43       0.002
  WS02006253           JUNCTION      1.70    54.56     0  02:17     0.00389       0.203      -0.020
  WS02006256           JUNCTION      0.00   600.00     0  02:23           0        4.01       0.067
  WS02004138           JUNCTION      0.00   379.88     0  01:50           0        5.96       0.075
  WS02004407           JUNCTION      0.00   564.82     0  02:30           0        6.35       0.089
  WS02006228           JUNCTION      0.00   576.94     0  02:23           0        6.49       0.155
  WS02006229           JUNCTION      0.00   580.33     0  02:23           0        6.51       0.166
  WS02006280           JUNCTION      0.00   252.63     0  02:17           0        1.01       0.007
  WS02006284           JUNCTION      0.10   252.63     0  02:16      0.0027        1.01       0.107
  WS02006287           JUNCTION      0.00   252.52     0  02:16           0        1.01       0.072
  WSF200               JUNCTION      0.00   559.03     0  02:33           0        6.24       0.057
  HS02004901           JUNCTION     13.85    13.85     0  02:09      0.0362      0.0363       5.082
  HS02004881           JUNCTION      5.60    48.65     0  02:16      0.0158       0.167       0.152
  HS02004876           JUNCTION      8.92    43.39     0  02:16      0.0303       0.152       0.350
  HS02004870           JUNCTION      9.88    34.64     0  02:16      0.0299       0.122       0.088
  HS02004862           JUNCTION      8.10    25.40     0  02:17      0.0355      0.0919       0.183
  HS02004856           JUNCTION      7.33    17.37     0  02:16      0.0225      0.0578       2.549
  HS02004852           JUNCTION      0.00    10.50     0  02:16           0      0.0353       0.146
  HS02004848           JUNCTION     16.25    16.25     0  02:19      0.0714      0.0714       0.061
  HS02004842           JUNCTION      0.00     6.34     0  02:29           0      0.0491      36.016
  HS02004837           JUNCTION     22.20    27.47     0  02:16       0.231       0.267       0.305
  HS02004830           JUNCTION      0.15    27.60     0  02:16     0.00423       0.258       0.481
  HS02004824           JUNCTION     18.28    45.65     0  02:19      0.0935        0.35       0.154
  HS02004817           JUNCTION      0.60    46.25     0  02:20      0.0169       0.366       4.768
  HS02004807           JUNCTION     18.60    63.20     0  02:18       0.055       0.405       1.056
  HS02004802           JUNCTION      0.00    63.61     0  02:19           0         0.4       1.024
  HS02004799           JUNCTION     14.32   161.53     0  02:14      0.0445       0.531       0.430
  HS02004792           JUNCTION     63.92   147.50     0  02:14       0.193       0.487       0.084
  HS02004788           JUNCTION     21.09    85.80     0  02:14       0.109       0.295       0.132
  HS02004785           JUNCTION      0.15    65.07     0  02:14     0.00423       0.188       0.258
  HS02004777           JUNCTION      0.03    65.41     0  02:13    0.000846       0.188       2.825
  HS02004770           JUNCTION     54.16    66.68     0  02:11       0.155       0.189       1.662
  HS02004480           JUNCTION      0.00   190.51     0  02:15           0       0.621       0.120
  HS02004479           JUNCTION      0.00    29.57     0  02:16           0       0.103       0.716
  HS02004478           JUNCTION      0.00   252.50     0  02:16           0        1.01       0.061
  YS02001745           JUNCTION     93.38   193.19     0  03:58       0.983        1.11       0.623
  YS02001748           JUNCTION      0.04   241.29     0  03:56     0.00127        1.12       1.785
  YS02001751           JUNCTION      0.01   275.59     0  03:58     0.00031       0.975       2.396
  YS02001754           JUNCTION      0.26   145.68     0  03:03     0.00733       0.945       2.592
  YS02001762           JUNCTION      0.00   135.06     0  02:51           0        1.07       1.993
  YS02001765           JUNCTION      0.00   133.33     0  02:51           0        1.07       2.315
  YS02001767           JUNCTION      0.54   136.40     0  02:40      0.0151        1.09       3.352
  YS02001770           JUNCTION    119.65   157.61     0  02:52        1.14        1.17       2.719
  YS02001774           JUNCTION      0.00    50.47     0  02:13           0      0.0986      34.435
  YS02001779           JUNCTION      0.01    43.22     0  02:52    0.000141       0.043      50.863
  YS02001882           JUNCTION      0.00     4.84     0  02:06           0     0.00616      39.814
  YS02001884           JUNCTION      0.00    13.80     0  02:05           0      0.0243      26.155
  YS02001759           JUNCTION    116.90   252.18     0  02:51        1.06         2.1       1.105
  YS02001887           JUNCTION    153.59   154.37     0  02:44        1.26        1.27       0.580
  YS02001890           JUNCTION      0.00   154.14     0  02:42           0        1.25       0.648
  YS02001898           JUNCTION      0.00   153.01     0  02:43           0        1.23       0.190
  YS02001901           JUNCTION      0.00   154.03     0  02:42           0        1.23       0.464
  YS02001904           JUNCTION      0.00   153.35     0  02:42           0        1.23       0.431
  YS02001907           JUNCTION      0.00   280.00     0  02:50           0        2.65       0.849
  YS02001910           JUNCTION      0.00   127.10     0  03:03           0        1.43       0.731
  YS02001915           JUNCTION     83.49   126.08     0  02:59       0.838        1.43       0.333
  YS02001918           JUNCTION      0.00    42.81     0  03:03           0       0.597       0.207
  YS02001619           JUNCTION     81.23    81.23     0  02:56       0.828       0.828       1.494
  YS02001629           JUNCTION      0.00   136.61     0  03:38           0       0.753       3.931
  YS02001641           JUNCTION      0.00   172.42     0  02:48           0        1.62       1.310
  YS02001644           JUNCTION     88.75   264.69     0  02:49       0.944        2.53       1.042
  YS02001652           JUNCTION      0.00   179.20     0  03:06           0       0.875       2.688
  YS02001655           JUNCTION      0.15   225.06     0  03:48     0.00434       0.914       2.755
  YS02001920           JUNCTION      2.87    42.66     0  03:01      0.0809       0.599       0.364
  YS02001923           JUNCTION      0.04    39.79     0  03:01     0.00106       0.518       0.064
  YS02001926           JUNCTION      0.05    39.83     0  03:01     0.00147        0.52       0.453
  YS02001929           JUNCTION     39.79    39.79     0  03:01       0.519       0.519       0.063
  YS02001658           JUNCTION      0.00   215.49     0  04:02           0       0.968       2.164
  YS02001661           JUNCTION      0.00   160.81     0  03:47           0       0.965       1.313
  YS02001664           JUNCTION    108.99   108.99     0  02:43       0.926       0.926       0.009
  YS02001622           JUNCTION      0.00    98.25     0  02:40           0        0.82       4.076
  YS02001633           JUNCTION     90.25   181.05     0  02:49       0.972        1.68       1.945
  YS02001649           JUNCTION      0.00   382.87     0  03:03           0        3.31       1.132
  YS02001757           JUNCTION      0.00   682.27     0  02:55           0        6.23       1.501
  YS02001895           JUNCTION      0.00   154.10     0  02:42           0        1.24       0.315
  YS02001625           JUNCTION      0.00   136.43     0  03:39           0       0.793       5.204
  YS02163301           JUNCTION      0.00   100.63     0  02:39           0       0.732       3.375
  YS02163601           JUNCTION      0.11   175.49     0  02:52      0.0031        1.64       1.874
  YS02164001           JUNCTION      0.00   172.77     0  02:52           0        1.62       1.259
  YS02001647           JUNCTION      0.00   268.55     0  02:49           0        2.49       1.143
  YSB1154              JUNCTION     15.87    15.87     0  02:14      0.0539      0.0553       2.682
  YSB6556              JUNCTION      0.00    15.85     0  02:16           0      0.0562       2.267
  YSB1174              JUNCTION     15.74    15.74     0  02:08      0.0392      0.0403       3.290
  YSB1171              JUNCTION      0.00    29.52     0  02:14           0       0.102       6.601
  YS02006553           JUNCTION      0.00   279.32     0  02:50           0        2.64       0.550
  YS02006561           JUNCTION      0.00   423.63     0  02:55           0        3.74       0.012
  YS02006556           JUNCTION      0.00   277.88     0  02:54           0        2.65       0.398
  YS02006558           JUNCTION    130.02   408.62     0  02:50        1.15        3.77       0.129
  YS02001783           JUNCTION      0.00   412.81     0  03:01           0        3.74       0.044
  YS02001784           JUNCTION      1.06   462.29     0  03:02      0.0299        3.76       0.070
  YS02001786           JUNCTION      0.06   459.49     0  03:03     0.00159        3.76       0.070
  YS02001788           JUNCTION      0.07   475.96     0  03:03       0.002        3.76       0.039
  YS02001790           JUNCTION      0.15   458.35     0  03:02     0.00437        3.77       0.040
  YS02001791           JUNCTION      0.00   458.55     0  03:02           0        3.76       0.018
  YS02001793           JUNCTION      0.00   702.17     0  02:56           0        3.77      -0.061
  WS02004139           JUNCTION      0.32   379.62     0  01:50     0.00905        5.96       0.554
  WSC                  OUTFALL       0.00   842.35     0  02:36           0        12.7       0.000
  3                    OUTFALL       0.00   522.89     0  02:23           0        2.11       0.000
  4                    OUTFALL       0.00   145.57     0  02:23           0       0.256       0.000
  5                    OUTFALL       0.00     0.00     0  00:00           0           0       0.000 ltr
  JK-storage           STORAGE       0.00   864.38     0  02:55           0        3.93     -17.590
  CC-storage           STORAGE       0.00   682.15     0  02:55           0        6.14       0.087
  XR-storage           STORAGE     351.12   351.12     0  02:52        7.29        7.89      -0.001
  
  
  **********************
  Node Surcharge Summary
  **********************
  
  Surcharging occurs when water rises above the top of the highest conduit.
  ---------------------------------------------------------------------
                                               Max. Height   Min. Depth
                                   Hours       Above Crown    Below Rim
  Node                 Type      Surcharged         Meters       Meters
  ---------------------------------------------------------------------
  WS02006109           JUNCTION        1.09          0.201        1.619
  WS02006110           JUNCTION        0.27          0.044        1.806
  WS02006112           JUNCTION        0.45          0.083        1.597
  WS02006230           JUNCTION        0.01          0.002        1.568
  WS02006231           JUNCTION        0.10          0.104        1.426
  WS02006232           JUNCTION        1.18          0.248        1.232
  WS02006234           JUNCTION        0.29          0.235        1.005
  WS02006235           JUNCTION        0.65          0.231        1.059
  WS02006238           JUNCTION        0.91          0.241        1.189
  WS02006240           JUNCTION        0.21          0.181        1.209
  WS02006242           JUNCTION        0.69          0.304        0.516
  WS02006247           JUNCTION        0.01          0.760        0.000
  WS02006239           JUNCTION        0.36          0.309        0.981
  WS02006252           JUNCTION        1.46          0.193        0.907
  WS02006228           JUNCTION        1.01          0.251        1.949
  YS02001751           JUNCTION        2.84          0.785        0.415
  YS02001754           JUNCTION        4.34          0.775        0.375
  YS02001762           JUNCTION        5.30          0.681        0.469
  YS02001765           JUNCTION        5.25          0.622        0.478
  YS02001767           JUNCTION        5.18          0.590        0.440
  YS02001770           JUNCTION        5.04          0.601        0.319
  YS02001774           JUNCTION        5.29          0.727        0.323
  YS02001779           JUNCTION        4.25          0.478        0.202
  YS02001759           JUNCTION        5.34          0.719        0.491
  YS02001619           JUNCTION        1.98          0.074        0.536
  YS02001629           JUNCTION        1.97          0.068        0.402
  YS02001641           JUNCTION        5.28          0.557        0.543
  YS02001644           JUNCTION        5.28          0.560        0.360
  YS02001652           JUNCTION        4.47          0.620        0.510
  YS02001655           JUNCTION        3.22          1.016        0.184
  YS02001622           JUNCTION        2.50          0.096        0.524
  YS02001633           JUNCTION        5.24          0.523        0.537
  YS02001649           JUNCTION        5.32          0.631        0.419
  YS02001757           JUNCTION        5.43          0.814        0.396
  YS02001625           JUNCTION        4.62          0.388        0.392
  YS02163301           JUNCTION        5.14          0.480        0.550
  YS02163601           JUNCTION        5.32          0.597        0.483
  YS02164001           JUNCTION        5.25          0.537        0.563
  YS02001647           JUNCTION        4.54          0.400        0.500
  YS02001788           JUNCTION        0.01          0.043        1.437
  YS02001790           JUNCTION        1.19          1.157        0.000
  YS02001791           JUNCTION        1.41          1.737        0.183
  YS02001793           JUNCTION        1.50          1.339        1.261
  
  
  *********************
  Node Flooding Summary
  *********************
  
  Flooding refers to all water that overflows a node, whether it ponds or not.
  --------------------------------------------------------------------------
                                                             Total   Maximum
                                 Maximum   Time of Max       Flood    Ponded
                        Hours       Rate    Occurrence      Volume     Depth
  Node                 Flooded       LPS   days hr:min    10^6 ltr    Meters
  --------------------------------------------------------------------------
  WS02006247              0.01     46.33      0  02:23       0.000     0.000
  YS02001790              0.01    208.02      0  02:59       0.000     0.000
  JK-storage              0.93    373.96      0  03:02       0.743     0.000
  XR-storage              3.01    252.62      0  05:50       1.010     0.000
  
  
  **********************
  Storage Volume Summary
  **********************
  
  --------------------------------------------------------------------------------------------------
                         Average     Avg  Evap Exfil       Maximum     Max    Time of Max    Maximum
                          Volume    Pcnt  Pcnt  Pcnt        Volume    Pcnt     Occurrence    Outflow
  Storage Unit           1000 m3    Full  Loss  Loss       1000 m3    Full    days hr:min        LPS
  --------------------------------------------------------------------------------------------------
  JK-storage               0.105      36     0     0         0.291     100       0  03:00     600.00
  CC-storage               1.809      12     0     0         2.733      17       0  06:24     400.00
  XR-storage               0.780      84     0     0         0.926     100       0  03:51     379.88
  
  
  ***********************
  Outfall Loading Summary
  ***********************
  
  -----------------------------------------------------------
                         Flow       Avg       Max       Total
                         Freq      Flow      Flow      Volume
  Outfall Node           Pcnt       LPS       LPS    10^6 ltr
  -----------------------------------------------------------
  WSC                   99.99    504.85    842.35      12.684
  3                     78.46    146.48    522.89       2.108
  4                     26.96     48.20    145.57       0.256
  5                      0.00      0.00      0.00       0.000
  -----------------------------------------------------------
  System                51.36    699.53   1211.02      15.048
  
  
  ********************
  Link Flow Summary
  ********************
  
  -----------------------------------------------------------------------------
                                 Maximum  Time of Max   Maximum    Max/    Max/
                                  |Flow|   Occurrence   |Veloc|    Full    Full
  Link                 Type          LPS  days hr:min     m/sec    Flow   Depth
  -----------------------------------------------------------------------------
  WS02003066WSF200     CONDUIT    559.03     0  02:33      2.72    0.09    0.24
  WS02006287WS02006284 CONDUIT    252.53     0  02:16      1.74    0.12    0.24
  WS02006284WS02006280 CONDUIT    252.63     0  02:17      1.98    0.11    0.22
  WS02006280WS02006229 CONDUIT    252.64     0  02:17      3.18    0.05    0.16
  WS02006229WS02006228 CONDUIT    576.94     0  02:23      1.15    1.91    1.00
  WS02006256WS02006235 CONDUIT    166.25     0  00:01      2.58    1.76    1.00
  WS02006253WS02006251 CONDUIT     55.57     0  02:24      0.53    0.17    0.93
  WS02006252WS02006251 CONDUIT    400.60     0  04:07      3.19    1.47    1.00
  WS02006251WS02006249 CONDUIT    435.82     0  02:20      1.25    1.26    0.90
  WS02006249WS02006248 CONDUIT    377.38     0  02:20      1.24    2.07    0.88
  WS02006248WS02006247 CONDUIT    372.33     0  02:20      1.20    0.81    0.94
  WS02006247WS02006245 CONDUIT    363.51     0  02:21      1.17    2.88    0.96
  WS02006245WS02006243 CONDUIT    352.88     0  02:21      1.20    1.04    0.98
  WS02006243WS02006242 CONDUIT    337.06     0  02:21      1.01    0.72    1.00
  WS02006242WS02006240 CONDUIT    337.38     0  04:10      0.95    1.34    1.00
  WS02006240WS02006239 CONDUIT    342.04     0  04:10      1.00    1.08    1.00
  WS02006239WS02006238 CONDUIT    343.37     0  04:10      0.92    1.10    1.00
  WS02006238WS02006235 CONDUIT    343.32     0  04:10      1.25    0.77    1.00
  WS02006235WS02006234 CONDUIT    389.11     0  03:54      1.04    4.11    1.00
  WS02006234WS02006232 CONDUIT    385.45     0  03:54      1.13    0.78    1.00
  WS02006232WS02006231 CONDUIT    385.27     0  03:54      1.06    0.81    1.00
  WS02006231WS02006230 CONDUIT    384.73     0  04:00      1.36    5.84    1.00
  WS02006230WS02006229 CONDUIT    395.13     0  04:00      1.03    8.79    1.00
  WS02006228WS02006109 CONDUIT    576.96     0  02:23      1.15    2.52    1.00
  WS02006116WS02004401 CONDUIT    567.71     0  02:27      0.82    0.78    0.86
  WS02006115WS02006116 CONDUIT    571.90     0  02:26      0.93    0.73    0.78
  WS02006113WS02006111 CONDUIT    601.10     0  02:24      2.52    0.72    0.48
  WS02006112WS02006115 CONDUIT    588.69     0  02:23      0.83    0.35    0.88
  WS02006111WS02006112 CONDUIT    582.21     0  02:24      1.60    0.28    0.68
  WS02006110WS02006113 CONDUIT    578.27     0  02:23      1.35    0.53    0.80
  WS02006109WS02006110 CONDUIT    578.18     0  02:23      1.15    1.11    1.00
  WS02004411WS02004412 CONDUIT    559.22     0  02:32      0.94    0.79    0.71
  WS02004401WS02004402 CONDUIT    565.31     0  02:29      0.78    0.68    0.89
  WS02004413WS02003067 CONDUIT    558.93     0  02:33      1.14    0.24    0.60
  WS02004412WS02004413 CONDUIT    559.03     0  02:32      0.84    0.37    0.79
  WS02004410WS02004411 CONDUIT    559.77     0  02:32      0.96    0.76    0.70
  WS02004409WS02004410 CONDUIT    561.23     0  02:30      1.00    0.73    0.69
  WS02004407WS02004409 CONDUIT    564.75     0  02:30      1.53    0.20    0.49
  WS02004406WS02004407 CONDUIT    564.82     0  02:30      1.07    0.25    0.64
  WS02004405WS02004406 CONDUIT    564.95     0  02:29      0.73    1.11    0.97
  WS02004404WS02004405 CONDUIT    564.90     0  02:29      0.84    5.53    0.98
  WS02004403WS02004404 CONDUIT    564.90     0  02:29      0.74    0.41    0.95
  WS02004402WS02004403 CONDUIT    565.13     0  02:29      0.76    0.81    0.90
  WS02004139WS02001211 CONDUIT    370.04     0  01:50      0.81    0.47    0.56
  WS02004138WS02004139 CONDUIT    379.30     0  01:50      3.33    0.08    0.41
  WS02003067WS02003066 CONDUIT    558.98     0  02:33      1.23    0.18    0.42
  WS02001213WS02003059 CONDUIT    367.62     0  01:52      0.80    0.61    0.71
  WS02001212WS02001213 CONDUIT    370.93     0  01:52      1.30    0.57    0.41
  WS02001211WS02001212 CONDUIT    371.34     0  01:51      0.76    0.28    0.59
  WS02003072WS02003073 CONDUIT    840.35     0  02:35      1.66    1.82    0.46
  WS02003069WS02003072 CONDUIT    840.10     0  02:34      1.56    0.40    0.48
  WS02003060WS02003069 CONDUIT    839.72     0  02:34      1.82    0.33    0.43
  WS02003059WS02003060 CONDUIT    365.77     0  01:54      0.91    0.24    0.62
  HS02004901HS02004770 CONDUIT     12.85     0  02:13      0.05    0.05    0.35
  HS02004876HS02004881 CONDUIT     43.52     0  02:16      0.66    0.46    0.09
  HS02004870HS02004876 CONDUIT     34.61     0  02:17      0.46    0.02    0.11
  HS02004842HS02004848 CONDUIT      6.34     0  02:29      0.03    0.00    0.28
  HS02004837HS02004842 CONDUIT      6.57     0  02:29      0.41    0.00    0.30
  HS02004830HS02004837 CONDUIT     27.45     0  02:16      0.47    0.03    0.08
  HS02004824HS02004830 CONDUIT     27.59     0  02:17      0.51    0.04    0.08
  HS02004817HS02004824 CONDUIT     45.65     0  02:20      0.17    0.02    0.42
  HS02004770HS02004777 CONDUIT     65.38     0  02:13      0.26    0.12    0.36
  HS02004799HS02004480 CONDUIT    161.24     0  02:14      0.66    0.20    0.35
  HS02004792HS02004799 CONDUIT    147.40     0  02:14      0.76    0.09    0.28
  HS02004788HS02004792 CONDUIT     85.72     0  02:15      0.90    0.06    0.14
  HS02004785HS02004788 CONDUIT     64.98     0  02:15      0.57    0.49    0.16
  HS02004777HS02004785 CONDUIT     64.92     0  02:14      0.31    0.08    0.29
  HS02004480HS02004478 CONDUIT    190.43     0  02:15      1.05    0.80    0.26
  HS02004479HS02004480 CONDUIT     29.84     0  02:17      0.16    0.03    0.34
  HS02004862HS02004870 CONDUIT     25.36     0  02:17      0.51    0.03    0.07
  HS02004848HS02004852 CONDUIT     10.50     0  02:16      0.34    0.01    0.04
  HS02004856HS02004862 CONDUIT     17.33     0  02:17      0.38    0.02    0.07
  HS02004852HS02004856 CONDUIT     10.46     0  02:18      0.15    0.01    0.10
  HS02004802HS02004478 CONDUIT     64.12     0  02:20      0.33    0.06    0.28
  HS02004478WS02006287 CONDUIT    252.52     0  02:16      1.43    0.07    0.20
  HS02004817HS02004807 CONDUIT     46.98     0  02:21      0.13    0.03    0.54
  HS02004807HS02004802 CONDUIT     63.61     0  02:19      0.28    0.12    0.33
  YS02001759YS02001757 CONDUIT    252.62     0  02:51      0.32    0.18    1.00
  YS02001762YS02001759 CONDUIT    135.64     0  02:51      0.18    0.16    1.00
  YS02001765YS02001762 CONDUIT    135.06     0  02:51      0.23    0.13    1.00
  YS02001770YS02001767 CONDUIT    135.87     0  02:40      0.33    0.54    1.00
  YS02001774YS02001770 CONDUIT     50.47     0  02:13      0.14    0.03    1.00
  YS02001779YS02001774 CONDUIT     43.22     0  02:52      0.09    0.02    1.00
  YS02001649YS02001757 CONDUIT    384.47     0  03:03      0.49    0.23    1.00
  YS02001767YS02001765 CONDUIT    133.33     0  02:51      0.26    0.17    1.00
  YS02006561YS02001783 CONDUIT    412.81     0  03:01      1.91    0.21    0.60
  YS02001783YS02001784 CONDUIT    461.23     0  03:02      1.34    0.64    0.90
  YS02001784YS02001785 CONDUIT    459.43     0  03:03      1.44    1.07    0.95
  YS02001788YS02001790 CONDUIT    458.19     0  03:02      2.00    0.34    1.00
  YS02001790YS02001791 CONDUIT    458.55     0  03:02      2.37    0.50    1.00
  YS02001791YS02001793 CONDUIT    702.17     0  02:56      4.74    0.30    1.00
  YS02001910YS02001907 CONDUIT    127.85     0  03:03      0.49    0.07    0.80
  YS02001786YS02001788 CONDUIT    475.89     0  03:03      1.92    0.92    0.96
  YS02001915YS02001910 CONDUIT    127.10     0  03:03      0.44    0.06    0.59
  YS02001918YS02001915 CONDUIT     44.50     0  03:07      0.44    0.02    0.31
  YS02001923YS02001920 CONDUIT     39.79     0  03:01      0.50    0.02    0.16
  YS02001926YS02001923 CONDUIT     39.76     0  03:01      0.54    0.06    0.15
  YS02001929YS02001926 CONDUIT     39.78     0  03:01      0.58    0.02    0.14
  YS02001920YS02001918 CONDUIT     42.81     0  03:03      0.50    0.04    0.18
  YS02001629YS02163301 CONDUIT    100.63     0  02:39      0.13    0.12    1.00
  YS02001619YS02001622 CONDUIT     98.25     0  02:40      0.70    0.14    1.00
  YS02001622YS02001625 CONDUIT    136.43     0  03:39      0.28    0.07    1.00
  YS02001625YS02001629 CONDUIT    136.61     0  03:38      0.27    0.06    1.00
  YS02163301YS02001633 CONDUIT     91.91     0  02:49      0.12    0.09    1.00
  YS02163601YS02164001 CONDUIT    172.77     0  02:52      0.22    0.15    1.00
  YS02164001YS02001641 CONDUIT    172.42     0  02:48      0.22    0.24    1.00
  YS02001641YS02001644 CONDUIT    176.93     0  02:49      0.23    0.57    1.00
  YS02001647YS02001649 CONDUIT    290.46     0  02:53      0.37    0.15    1.00
  YS02006553YS02006556 CONDUIT    277.88     0  02:54      0.38    0.24    0.88
  YS02006556YS02006558 CONDUIT    279.28     0  02:50      0.37    0.22    0.91
  YSB6556YSB1171       CONDUIT     16.15     0  02:17      0.07    0.02    0.61
  YS02001907YS02006553 CONDUIT    279.32     0  02:50      0.31    0.33    0.99
  YS02006558YS02006561 CONDUIT    423.63     0  02:55      2.57    0.94    0.57
  YS02001633YS02163601 CONDUIT    175.38     0  02:52      0.22    0.18    1.00
  YS02001644YS02001647 CONDUIT    268.55     0  02:49      0.35    0.16    1.00
  YS02001745YS02001748 CONDUIT    241.25     0  03:56      1.48    0.09    0.65
  YS02001748YS02001751 CONDUIT    275.58     0  03:58      1.15    0.14    0.96
  YS02001751YS02001754 CONDUIT    145.42     0  03:03      1.01    0.07    1.00
  YS02001754YS02001757 CONDUIT    138.74     0  03:48      0.33    0.06    1.00
  YS02001882YS02001884 CONDUIT      4.84     0  02:06      0.06    0.01    0.53
  YS02001884YS02001887 CONDUIT     13.80     0  02:05      0.06    0.02    0.62
  YS02001890YS02001895 CONDUIT    154.10     0  02:42      0.32    0.07    0.59
  YS02001895YS02001898 CONDUIT    153.01     0  02:43      0.50    0.27    0.45
  YS02001898YS02001901 CONDUIT    154.03     0  02:42      0.37    0.10    0.53
  YS02001901YS02001904 CONDUIT    153.35     0  02:42      0.33    0.24    0.58
  YS02001904YS02001907 CONDUIT    153.14     0  02:44      0.25    0.05    0.74
  YS02001887YS02001890 CONDUIT    154.14     0  02:42      0.28    0.26    0.67
  YS02001652YS02001649 CONDUIT    149.93     0  03:05      0.35    0.07    1.00
  YS02001655YS02001652 CONDUIT    179.20     0  03:06      1.08    0.09    1.00
  YS02001658YS02001655 CONDUIT    213.02     0  03:49      1.33    0.09    0.93
  YS02001661YS02001658 CONDUIT    202.19     0  04:02      1.54    0.08    0.68
  YS02001664YS02001661 CONDUIT    108.99     0  02:43      1.24    0.03    0.32
  YSB1154YSB6556       CONDUIT     15.85     0  02:16      0.19    0.03    0.50
  YSB1174YSB1171       CONDUIT     14.62     0  02:10      0.06    0.02    0.61
  YSB1171HS02004479    CONDUIT     29.57     0  02:16      0.54    0.02    0.48
  HS02004881HS02006253 CONDUIT     48.65     0  02:16      1.81    0.01    0.25
  YS02001793JiankangQianchi CONDUIT    864.38     0  02:55     13.91    0.07    1.00
  YS02001757CaochengTiaoxuchi CONDUIT    682.15     0  02:55      1.54    0.30    0.99
  WSF200WS02003060     CONDUIT    559.29     0  02:33      1.84    0.12    0.33
  1                    CONDUIT    842.35     0  02:36      3.18    0.29    0.37
  2                    CONDUIT    145.57     0  02:23      5.37    0.35    0.41
  3                    CONDUIT    522.89     0  02:23      9.86    0.83    0.70
  4                    CONDUIT      0.00     0  00:00      0.00    0.00    0.00
  CC-Pump-1            PUMP       200.00     0  03:50              1.00
  CC-Pump-2            PUMP       200.00     0  02:20              1.00
  JK-Pump-1            PUMP       300.00     0  02:23              1.00
  JK-Pump-2            PUMP       300.00     0  00:00              1.00
  XR-Pump-1            PUMP        95.00     0  00:00              1.00
  XR-Pump-2            PUMP        95.00     0  00:20              1.00
  XR-Pump-3            PUMP        95.00     0  00:00              1.00
  XR-Pump-4            PUMP        95.00     0  00:00              1.00
  
  
  ***************************
  Flow Classification Summary
  ***************************
  
  -------------------------------------------------------------------------------------
                      Adjusted    ---------- Fraction of Time in Flow Class ---------- 
                       /Actual         Up    Down  Sub   Sup   Up    Down  Norm  Inlet 
  Conduit               Length    Dry  Dry   Dry   Crit  Crit  Crit  Crit  Ltd   Ctrl  
  -------------------------------------------------------------------------------------
  WS02003066WSF200        1.00   0.07  0.00  0.00  0.00  0.93  0.00  0.00  0.68  0.00
  WS02006287WS02006284    1.00   0.04  0.02  0.00  0.69  0.25  0.00  0.00  0.77  0.00
  WS02006284WS02006280    1.00   0.05  0.00  0.00  0.00  0.00  0.00  0.95  0.00  0.00
  WS02006280WS02006229    1.00   0.05  0.00  0.00  0.00  0.00  0.00  0.95  0.00  0.00
  WS02006229WS02006228    1.00   0.00  0.00  0.00  0.98  0.00  0.00  0.02  0.00  0.00
  WS02006256WS02006235    1.00   0.00  0.00  0.00  1.00  0.00  0.00  0.00  0.00  0.00
  WS02006253WS02006251    1.00   0.03  0.01  0.00  0.95  0.00  0.00  0.00  0.00  0.00
  WS02006252WS02006251    1.00   0.09  0.01  0.00  0.00  0.00  0.89  0.00  0.00  0.00
  WS02006251WS02006249    1.00   0.00  0.00  0.00  1.00  0.00  0.00  0.00  0.34  0.00
  WS02006249WS02006248    1.00   0.00  0.02  0.00  0.84  0.00  0.14  0.00  0.00  0.00
  WS02006248WS02006247    1.00   0.03  0.00  0.00  0.97  0.00  0.00  0.00  0.25  0.00
  WS02006247WS02006245    1.00   0.02  0.00  0.00  0.97  0.00  0.00  0.01  0.00  0.00
  WS02006245WS02006243    1.00   0.01  0.00  0.00  0.92  0.00  0.00  0.06  0.02  0.00
  WS02006243WS02006242    1.00   0.01  0.00  0.00  0.99  0.00  0.00  0.00  0.29  0.00
  WS02006242WS02006240    1.00   0.00  0.00  0.00  1.00  0.00  0.00  0.00  0.00  0.00
  WS02006240WS02006239    1.00   0.00  0.00  0.00  0.95  0.00  0.00  0.05  0.01  0.00
  WS02006239WS02006238    1.00   0.00  0.00  0.00  1.00  0.00  0.00  0.00  0.01  0.00
  WS02006238WS02006235    1.00   0.00  0.00  0.00  1.00  0.00  0.00  0.00  0.00  0.00
  WS02006235WS02006234    1.00   0.00  0.00  0.00  0.95  0.00  0.05  0.00  0.00  0.00
  WS02006234WS02006232    1.00   0.00  0.00  0.00  1.00  0.00  0.00  0.00  0.03  0.00
  WS02006232WS02006231    1.00   0.00  0.00  0.00  0.99  0.00  0.01  0.00  0.00  0.00
  WS02006231WS02006230    1.00   0.00  0.00  0.00  0.41  0.00  0.59  0.00  0.00  0.00
  WS02006230WS02006229    1.00   0.00  0.00  0.00  0.98  0.00  0.00  0.02  0.01  0.00
  WS02006228WS02006109    1.00   0.00  0.00  0.00  1.00  0.00  0.00  0.00  0.00  0.00
  WS02006116WS02004401    1.00   0.03  0.00  0.00  0.97  0.00  0.00  0.00  0.00  0.00
  WS02006115WS02006116    1.00   0.03  0.00  0.00  0.96  0.00  0.00  0.01  0.00  0.00
  WS02006113WS02006111    1.00   0.02  0.00  0.00  0.00  0.98  0.00  0.00  0.16  0.00
  WS02006112WS02006115    1.00   0.03  0.00  0.00  0.97  0.00  0.00  0.00  0.00  0.00
  WS02006111WS02006112    1.00   0.03  0.00  0.00  0.97  0.00  0.00  0.00  0.98  0.00
  WS02006110WS02006113    1.00   0.01  0.01  0.00  0.98  0.00  0.00  0.00  0.00  0.00
  WS02006109WS02006110    1.00   0.00  0.01  0.00  0.98  0.00  0.01  0.00  0.00  0.00
  WS02004411WS02004412    1.00   0.05  0.00  0.00  0.95  0.00  0.00  0.00  0.00  0.00
  WS02004401WS02004402    1.00   0.03  0.00  0.00  0.97  0.00  0.00  0.00  0.00  0.00
  WS02004413WS02003067    1.00   0.05  0.02  0.00  0.00  0.00  0.94  0.00  0.00  0.00
  WS02004412WS02004413    1.00   0.05  0.00  0.00  0.95  0.00  0.00  0.00  0.03  0.00
  WS02004410WS02004411    1.00   0.04  0.00  0.00  0.96  0.00  0.00  0.00  0.04  0.00
  WS02004409WS02004410    1.00   0.04  0.00  0.00  0.96  0.00  0.00  0.00  0.04  0.00
  WS02004407WS02004409    1.00   0.04  0.00  0.00  0.95  0.00  0.00  0.00  0.89  0.00
  WS02004406WS02004407    1.00   0.00  0.04  0.00  0.96  0.00  0.00  0.00  0.00  0.00
  WS02004405WS02004406    1.00   0.00  0.00  0.00  1.00  0.00  0.00  0.00  0.01  0.00
  WS02004404WS02004405    1.00   0.00  0.00  0.00  1.00  0.00  0.00  0.00  0.00  0.00
  WS02004403WS02004404    1.00   0.00  0.03  0.00  0.97  0.00  0.00  0.00  0.01  0.00
  WS02004402WS02004403    1.00   0.03  0.00  0.00  0.97  0.00  0.00  0.00  0.00  0.00
  WS02004139WS02001211    1.00   0.00  0.00  0.00  1.00  0.00  0.00  0.00  0.00  0.00
  WS02004138WS02004139    1.00   0.00  0.00  0.00  0.99  0.01  0.00  0.00  1.00  0.00
  WS02003067WS02003066    1.00   0.06  0.00  0.00  0.93  0.00  0.00  0.00  0.00  0.00
  WS02001213WS02003059    1.00   0.00  0.00  0.00  0.99  0.00  0.00  0.00  0.00  0.00
  WS02001212WS02001213    1.00   0.00  0.00  0.00  0.73  0.00  0.26  0.00  0.00  0.00
  WS02001211WS02001212    1.00   0.00  0.00  0.00  1.00  0.00  0.00  0.00  0.00  0.00
  WS02003072WS02003073    1.00   0.00  0.00  0.00  0.00  0.00  0.00  1.00  0.00  0.00
  WS02003069WS02003072    1.00   0.00  0.00  0.00  0.99  0.01  0.00  0.00  0.30  0.00
  WS02003060WS02003069    1.00   0.00  0.00  0.00  0.98  0.02  0.00  0.00  0.12  0.00
  WS02003059WS02003060    1.00   0.00  0.00  0.00  0.99  0.01  0.00  0.00  0.01  0.00
  HS02004901HS02004770    1.00   0.05  0.00  0.00  0.95  0.00  0.00  0.00  0.02  0.00
  HS02004876HS02004881    1.00   0.03  0.00  0.00  0.97  0.00  0.00  0.00  0.00  0.00
  HS02004870HS02004876    1.00   0.01  0.00  0.00  0.99  0.00  0.00  0.00  0.95  0.00
  HS02004842HS02004848    1.00   0.00  0.05  0.00  0.95  0.00  0.00  0.00  0.68  0.00
  HS02004837HS02004842    1.00   0.00  0.00  0.00  0.99  0.01  0.00  0.00  0.11  0.00
  HS02004830HS02004837    1.00   0.00  0.00  0.00  1.00  0.00  0.00  0.00  0.99  0.00
  HS02004824HS02004830    1.00   0.00  0.00  0.00  1.00  0.00  0.00  0.00  0.00  0.00
  HS02004817HS02004824    1.00   0.00  0.00  0.00  1.00  0.00  0.00  0.00  1.00  0.00
  HS02004770HS02004777    1.00   0.00  0.05  0.00  0.95  0.00  0.00  0.00  0.07  0.00
  HS02004799HS02004480    1.00   0.00  0.03  0.00  0.94  0.00  0.03  0.00  0.00  0.00
  HS02004792HS02004799    1.00   0.00  0.00  0.00  0.98  0.02  0.00  0.00  0.98  0.00
  HS02004788HS02004792    1.00   0.00  0.00  0.00  0.99  0.01  0.00  0.00  0.98  0.00
  HS02004785HS02004788    1.00   0.00  0.00  0.00  1.00  0.00  0.00  0.00  0.00  0.00
  HS02004777HS02004785    1.00   0.00  0.00  0.00  1.00  0.00  0.00  0.00  0.20  0.00
  HS02004480HS02004478    1.00   0.05  0.00  0.00  0.70  0.00  0.00  0.24  0.00  0.00
  HS02004479HS02004480    1.00   0.03  0.00  0.00  0.97  0.00  0.00  0.00  0.16  0.00
  HS02004862HS02004870    1.00   0.00  0.00  0.00  1.00  0.00  0.00  0.00  0.06  0.00
  HS02004848HS02004852    1.00   0.05  0.00  0.00  0.95  0.00  0.00  0.00  0.71  0.00
  HS02004856HS02004862    1.00   0.00  0.08  0.00  0.92  0.00  0.00  0.00  0.74  0.00
  HS02004852HS02004856    1.00   0.05  0.01  0.00  0.94  0.00  0.00  0.00  0.83  0.00
  HS02004802HS02004478    1.00   0.05  0.01  0.00  0.94  0.00  0.00  0.00  0.01  0.00
  HS02004478WS02006287    1.00   0.06  0.00  0.00  0.82  0.12  0.00  0.00  0.75  0.00
  HS02004817HS02004807    1.00   0.00  0.05  0.00  0.95  0.00  0.00  0.00  0.00  0.00
  HS02004807HS02004802    1.00   0.05  0.00  0.00  0.95  0.00  0.00  0.00  0.01  0.00
  YS02001759YS02001757    1.00   0.00  0.00  0.00  1.00  0.00  0.00  0.00  0.17  0.00
  YS02001762YS02001759    1.00   0.00  0.00  0.00  1.00  0.00  0.00  0.00  0.04  0.00
  YS02001765YS02001762    1.00   0.00  0.00  0.00  1.00  0.00  0.00  0.00  0.22  0.00
  YS02001770YS02001767    1.00   0.00  0.00  0.00  1.00  0.00  0.00  0.00  0.00  0.00
  YS02001774YS02001770    1.00   0.00  0.06  0.00  0.94  0.00  0.00  0.00  0.06  0.00
  YS02001779YS02001774    1.00   0.00  0.00  0.00  1.00  0.00  0.00  0.00  0.26  0.00
  YS02001649YS02001757    1.00   0.00  0.00  0.00  1.00  0.00  0.00  0.00  0.19  0.00
  YS02001767YS02001765    1.00   0.00  0.00  0.00  1.00  0.00  0.00  0.00  0.01  0.00
  YS02006561YS02001783    1.00   0.08  0.00  0.00  0.17  0.75  0.00  0.00  0.67  0.00
  YS02001783YS02001784    1.00   0.00  0.08  0.00  0.92  0.00  0.00  0.00  0.00  0.00
  YS02001784YS02001785    1.00   0.00  0.00  0.00  1.00  0.00  0.00  0.00  0.25  0.00
  YS02001788YS02001790    1.00   0.00  0.00  0.00  0.30  0.70  0.00  0.00  0.71  0.00
  YS02001790YS02001791    1.00   0.00  0.00  0.00  0.25  0.75  0.00  0.00  0.41  0.00
  YS02001791YS02001793    1.00   0.00  0.00  0.00  0.27  0.73  0.00  0.00  0.04  0.00
  YS02001910YS02001907    1.00   0.00  0.00  0.00  0.97  0.00  0.00  0.03  0.13  0.00
  YS02001786YS02001788    1.00   0.00  0.00  0.00  0.29  0.71  0.00  0.00  0.00  0.00
  YS02001915YS02001910    1.00   0.00  0.00  0.00  0.99  0.01  0.00  0.00  0.24  0.00
  YS02001918YS02001915    1.00   0.00  0.01  0.00  0.98  0.02  0.00  0.00  0.72  0.00
  YS02001923YS02001920    1.00   0.00  0.00  0.00  1.00  0.00  0.00  0.00  1.00  0.00
  YS02001926YS02001923    1.00   0.00  0.04  0.00  0.00  0.00  0.96  0.00  0.00  0.00
  YS02001929YS02001926    1.00   0.00  0.05  0.00  0.95  0.00  0.00  0.00  0.87  0.00
  YS02001920YS02001918    1.00   0.00  0.01  0.00  0.99  0.00  0.00  0.00  0.00  0.00
  YS02001629YS02163301    1.00   0.07  0.00  0.00  0.93  0.00  0.00  0.00  0.00  0.00
  YS02001619YS02001622    1.00   0.05  0.00  0.00  0.95  0.00  0.00  0.00  0.00  0.00
  YS02001622YS02001625    1.00   0.05  0.00  0.00  0.95  0.00  0.00  0.00  0.12  0.00
  YS02001625YS02001629    1.00   0.05  0.03  0.00  0.90  0.00  0.02  0.00  0.00  0.00
  YS02163301YS02001633    1.00   0.00  0.07  0.00  0.93  0.00  0.00  0.00  0.00  0.00
  YS02163601YS02164001    1.00   0.00  0.04  0.00  0.96  0.00  0.00  0.00  0.00  0.00
  YS02164001YS02001641    1.00   0.01  0.03  0.00  0.96  0.00  0.00  0.00  0.07  0.00
  YS02001641YS02001644    1.00   0.00  0.01  0.00  0.99  0.00  0.00  0.00  0.00  0.00
  YS02001647YS02001649    1.00   0.00  0.08  0.00  0.92  0.00  0.00  0.00  0.01  0.00
  YS02006553YS02006556    1.00   0.02  0.00  0.00  0.98  0.00  0.00  0.00  0.03  0.00
  YS02006556YS02006558    1.00   0.00  0.00  0.00  1.00  0.00  0.00  0.00  0.00  0.00
  YSB6556YSB1171          1.00   0.03  0.02  0.00  0.95  0.00  0.00  0.00  0.00  0.00
  YS02001907YS02006553    1.00   0.00  0.03  0.00  0.97  0.00  0.00  0.00  0.00  0.00
  YS02006558YS02006561    1.00   0.08  0.00  0.00  0.00  0.92  0.00  0.00  0.65  0.00
  YS02001633YS02163601    1.00   0.00  0.01  0.00  0.99  0.00  0.00  0.00  0.19  0.00
  YS02001644YS02001647    1.00   0.00  0.08  0.00  0.92  0.00  0.00  0.00  0.00  0.00
  YS02001745YS02001748    1.00   0.00  0.00  0.00  0.85  0.02  0.00  0.13  0.14  0.00
  YS02001748YS02001751    1.00   0.00  0.00  0.00  0.97  0.03  0.00  0.00  0.23  0.00
  YS02001751YS02001754    1.00   0.00  0.00  0.00  0.92  0.00  0.00  0.08  0.01  0.00
  YS02001754YS02001757    1.00   0.00  0.00  0.00  0.99  0.01  0.00  0.00  0.26  0.00
  YS02001882YS02001884    1.00   0.06  0.00  0.00  0.93  0.00  0.00  0.00  0.00  0.00
  YS02001884YS02001887    1.00   0.04  0.01  0.00  0.95  0.00  0.00  0.00  0.00  0.00
  YS02001890YS02001895    1.00   0.00  0.07  0.00  0.93  0.00  0.00  0.00  0.00  0.00
  YS02001895YS02001898    1.00   0.07  0.00  0.00  0.92  0.00  0.01  0.00  0.00  0.00
  YS02001898YS02001901    1.00   0.07  0.00  0.00  0.93  0.00  0.00  0.00  0.02  0.00
  YS02001901YS02001904    1.00   0.07  0.00  0.00  0.93  0.00  0.00  0.00  0.00  0.00
  YS02001904YS02001907    1.00   0.00  0.06  0.00  0.93  0.00  0.00  0.00  0.00  0.00
  YS02001887YS02001890    1.00   0.00  0.00  0.00  0.97  0.00  0.03  0.00  0.00  0.00
  YS02001652YS02001649    1.00   0.00  0.00  0.00  1.00  0.00  0.00  0.00  0.25  0.00
  YS02001655YS02001652    1.00   0.00  0.00  0.00  0.92  0.00  0.00  0.08  0.02  0.00
  YS02001658YS02001655    1.00   0.00  0.06  0.00  0.91  0.03  0.00  0.00  0.09  0.00
  YS02001661YS02001658    1.00   0.06  0.00  0.00  0.85  0.09  0.00  0.00  0.14  0.00
  YS02001664YS02001661    1.00   0.05  0.00  0.00  0.73  0.22  0.00  0.00  0.83  0.00
  YSB1154YSB6556          1.00   0.05  0.00  0.00  0.95  0.00  0.00  0.00  0.02  0.00
  YSB1174YSB1171          1.00   0.03  0.01  0.00  0.96  0.00  0.00  0.00  0.00  0.00
  YSB1171HS02004479       1.00   0.03  0.00  0.00  0.96  0.00  0.00  0.00  0.13  0.00
  HS02004881HS02006253    1.00   0.03  0.00  0.00  0.60  0.03  0.00  0.34  0.43  0.00
  YS02001793JiankangQianchi    1.00   0.00  0.00  0.00  0.48  0.51  0.00  0.00  0.18  0.00
  YS02001757CaochengTiaoxuchi    1.00   0.00  0.09  0.00  0.91  0.00  0.00  0.00  0.00  0.00
  WSF200WS02003060        1.00   0.00  0.07  0.00  0.65  0.29  0.00  0.00  0.25  0.00
  1                       1.00   0.00  0.00  0.00  0.00  1.00  0.00  0.00  0.42  0.00
  2                       1.00   0.73  0.00  0.00  0.00  0.27  0.00  0.00  0.06  0.00
  3                       1.00   0.21  0.00  0.00  0.00  0.78  0.00  0.00  0.40  0.00
  4                       1.00   1.00  0.00  0.00  0.00  0.00  0.00  0.00  0.00  0.00
  
  
  *************************
  Conduit Surcharge Summary
  *************************
  
  ----------------------------------------------------------------------------
                                                           Hours        Hours 
                         --------- Hours Full --------   Above Full   Capacity
  Conduit                Both Ends  Upstream  Dnstream   Normal Flow   Limited
  ----------------------------------------------------------------------------
  WS02006229WS02006228        1.01      1.16      1.01      3.09         1.01
  WS02006256WS02006235        5.55      5.55      7.58      3.26         0.01
  WS02006252WS02006251        0.74      0.74      1.46      1.28         0.01
  WS02006251WS02006249        0.01      0.01      0.01      0.80         0.01
  WS02006249WS02006248        0.01      0.01      0.01      2.75         0.01
  WS02006248WS02006247        0.01      0.01      0.01      0.01         0.01
  WS02006247WS02006245        0.01      0.01      0.01      3.49         0.01
  WS02006245WS02006243        0.01      0.01      0.01      0.05         0.01
  WS02006243WS02006242        0.03      0.03      0.69      0.01         0.01
  WS02006242WS02006240        0.21      0.21      0.97      1.37         0.01
  WS02006240WS02006239        0.33      0.33      0.36      0.12         0.01
  WS02006239WS02006238        0.84      0.84      0.91      0.19         0.07
  WS02006238WS02006235        0.77      0.77      1.12      0.01         0.01
  WS02006235WS02006234        0.29      0.29      0.65      5.49         0.01
  WS02006234WS02006232        0.40      0.40      1.18      0.01         0.01
  WS02006232WS02006231        0.10      0.10      1.18      0.01         0.01
  WS02006231WS02006230        0.01      0.01      0.13      5.61         0.01
  WS02006230WS02006229        1.73      2.45      1.73      5.83         1.73
  WS02006228WS02006109        1.09      1.46      1.09      4.24         1.09
  WS02006112WS02006115        0.01      0.01      0.45      0.01         0.01
  WS02006111WS02006112        0.01      0.01      3.26      0.01         0.01
  WS02006110WS02006113        0.01      0.01      1.31      0.01         0.01
  WS02006109WS02006110        0.27      0.27      1.46      0.27         0.01
  WS02004405WS02004406        0.01      0.01      0.01      0.38         0.01
  WS02004404WS02004405        0.01      0.01      0.01      5.65         0.01
  WS02003072WS02003073        0.01      0.01      0.01      3.92         0.01
  YS02001759YS02001757        5.34      5.34      5.43      0.01         0.01
  YS02001762YS02001759        5.30      5.30      5.34      0.01         0.01
  YS02001765YS02001762        5.25      5.25      5.30      0.01         0.01
  YS02001770YS02001767        5.16      5.17      5.18      0.01         0.63
  YS02001774YS02001770        5.04      5.04      5.29      0.01         0.01
  YS02001779YS02001774        4.25      4.25      5.29      0.01         0.01
  YS02001649YS02001757        5.32      5.32      5.43      0.01         0.01
  YS02001767YS02001765        5.18      5.18      5.25      0.01         0.01
  YS02001784YS02001785        0.01      0.01      0.01      0.01         0.01
  YS02001788YS02001790        0.01      0.01      1.19      0.01         0.01
  YS02001790YS02001791        1.19      1.19      1.41      0.01         0.01
  YS02001791YS02001793        1.41      1.41      1.52      0.01         0.01
  YS02001786YS02001788        0.01      0.01      0.01      0.01         0.01
  YS02001629YS02163301        5.01      5.01      5.14      0.01         0.01
  YS02001619YS02001622        1.98      1.98      2.50      0.01         0.01
  YS02001622YS02001625        2.50      2.50      4.62      0.01         0.01
  YS02001625YS02001629        1.97      1.97      4.62      0.01         0.01
  YS02163301YS02001633        5.13      5.13      5.26      0.01         0.01
  YS02163601YS02164001        5.25      5.25      5.32      0.01         0.01
  YS02164001YS02001641        5.25      5.25      5.28      0.01         0.01
  YS02001641YS02001644        5.27      5.28      5.28      0.01         0.40
  YS02001647YS02001649        4.54      4.54      5.32      0.01         0.01
  YS02001907YS02006553        0.01      0.01      0.52      0.01         0.01
  YS02001633YS02163601        5.24      5.24      5.32      0.01         0.01
  YS02001644YS02001647        4.54      4.54      5.28      0.01         0.01
  YS02001748YS02001751        0.01      0.01      2.84      0.01         0.01
  YS02001751YS02001754        2.83      2.83      4.34      0.01         0.01
  YS02001754YS02001757        4.53      4.53      5.43      0.01         0.01
  YS02001652YS02001649        4.68      4.68      5.32      0.01         0.01
  YS02001655YS02001652        3.22      3.22      4.47      0.01         0.01
  YS02001658YS02001655        0.01      0.01      3.22      0.01         0.01
  YS02001793JiankangQianchi        1.49      1.49      2.79      0.01         0.01
  YS02001757CaochengTiaoxuchi        0.01      0.01      5.43      0.01         0.01
  
  
  ***************
  Pumping Summary
  ***************
  
  ---------------------------------------------------------------------------------------------------------
                                                  Min       Avg       Max     Total     Power    % Time Off
                        Percent   Number of      Flow      Flow      Flow    Volume     Usage    Pump Curve
  Pump                 Utilized   Start-Ups       LPS       LPS       LPS  10^6 ltr     Kw-hr    Low   High
  ---------------------------------------------------------------------------------------------------------
  CC-Pump-1               54.35           5      0.00    126.18    200.00     1.896      4.85    0.0   17.9
  CC-Pump-2               41.60           6      0.00    134.38    200.00     1.536      4.23    0.0   18.1
  JK-Pump-1               70.20           5      0.00    134.29    300.00     1.960     28.53    0.0    0.0
  JK-Pump-2               76.60           7      0.00    138.21    300.00     2.053     28.57    0.0    0.0
  XR-Pump-1               78.71           7      0.00     66.86     95.00     1.510     16.47    0.0    0.0
  XR-Pump-2               80.83           6      0.00     72.33     95.00     1.624     15.43    0.0    0.0
  XR-Pump-3               68.07           7      0.00     61.16     95.00     1.311     14.85    0.0    0.0
  XR-Pump-4               76.58           7      0.00     70.91     95.00     1.511     13.11    0.0    0.0
  

  Analysis begun on:  Tue Dec 21 11:52:11 2021
  Analysis ended on:  Tue Dec 21 11:52:14 2021
  Total elapsed time: 00:00:03