
  EPA STORM WATER MANAGEMENT MODEL - VERSION 5.1 (Build 5.3.0.dev0)
  --------------------------------------------------------------

  WARNING 04: minimum elevation drop used for Conduit WS02004404WS02004405
  WARNING 03: negative offset ignored for Link YS02001904YS02001907
  
  *********************************************************
  NOTE: The summary statistics displayed in this report are
  based on results found at every computational time step,  
  not just on results from each reporting time step.
  *********************************************************
  
  ****************
  Analysis Options
  ****************
  Flow Units ............... LPS
  Process Models:
    Rainfall/Runoff ........ YES
    RDII ................... NO
    Snowmelt ............... NO
    Groundwater ............ NO
    Flow Routing ........... YES
    Ponding Allowed ........ NO
    Water Quality .......... NO
  Infiltration Method ...... HORTON
  Flow Routing Method ...... DYNWAVE
  Surcharge Method ......... EXTRAN
  Starting Date ............ 08/28/2015 08:00:00
  Ending Date .............. 08/28/2015 15:50:00
  Antecedent Dry Days ...... 8.0
  Report Time Step ......... 00:01:00
  Wet Time Step ............ 00:01:00
  Dry Time Step ............ 00:01:00
  Routing Time Step ........ 5.00 sec
  Variable Time Step ....... YES
  Maximum Trials ........... 8
  Number of Threads ........ 4
  Head Tolerance ........... 0.001500 m
  
  
  **************************        Volume         Depth
  Runoff Quantity Continuity     hectare-m            mm
  **************************     ---------       -------
  Total Precipitation ......         2.730         5.977
  Evaporation Loss .........         0.000         0.000
  Infiltration Loss ........         0.686         1.502
  Surface Runoff ...........         1.157         2.533
  Final Storage ............         0.888         1.943
  Continuity Error (%) .....        -0.018
  
  
  **************************        Volume        Volume
  Flow Routing Continuity        hectare-m      10^6 ltr
  **************************     ---------     ---------
  Dry Weather Inflow .......         0.616         6.165
  Wet Weather Inflow .......         1.156        11.561
  Groundwater Inflow .......         0.000         0.000
  RDII Inflow ..............         0.000         0.000
  External Inflow ..........         0.102         1.024
  External Outflow .........         1.519        15.192
  Flooding Loss ............         0.161         1.614
  Evaporation Loss .........         0.000         0.000
  Exfiltration Loss ........         0.000         0.000
  Initial Stored Volume ....         0.076         0.761
  Final Stored Volume ......         0.361         3.608
  Continuity Error (%) .....        -4.638
  
  
  *************************
  Highest Continuity Errors
  *************************
  Node HS02004842 (28.20%)
  Node JK-storage (-25.30%)
  Node YS02001884 (22.55%)
  Node YS02001774 (11.14%)
  Node YSB1171 (6.87%)
  
  
  ***************************
  Time-Step Critical Elements
  ***************************
  Link WS02006252WS02006251 (59.22%)
  Link 3 (30.19%)
  Link WS02006238WS02006235 (4.26%)
  Link WS02006280WS02006229 (1.91%)
  
  
  ********************************
  Highest Flow Instability Indexes
  ********************************
  Link WS02006113WS02006111 (44)
  Link WS02006111WS02006112 (20)
  Link YS02006558YS02006561 (15)
  Link YS02163301YS02001633 (3)
  Link YS02001629YS02163301 (3)
  
  
  *************************
  Routing Time Step Summary
  *************************
  Minimum Time Step           :     0.41 sec
  Average Time Step           :     0.93 sec
  Maximum Time Step           :     5.00 sec
  Percent in Steady State     :    -0.00
  Average Iterations per Step :     2.18
  Percent Not Converging      :     2.17
  
  
  ***************************
  Subcatchment Runoff Summary
  ***************************
  
  ------------------------------------------------------------------------------------------------------------------------------
                            Total      Total      Total      Total     Imperv       Perv      Total       Total     Peak  Runoff
                           Precip      Runon       Evap      Infil     Runoff     Runoff     Runoff      Runoff   Runoff   Coeff
  Subcatchment                 mm         mm         mm         mm         mm         mm         mm    10^6 ltr      LPS
  ------------------------------------------------------------------------------------------------------------------------------
  sub0                       5.98       0.00       0.00       0.42       4.29       0.00       4.29        0.00     1.44   0.718
  sub1                       5.98       0.00       0.00       0.66       4.06       0.00       4.06        0.03     7.56   0.680
  sub2                       5.98       0.00       0.00       2.21       2.86       0.00       2.86        0.03     6.69   0.478
  sub3                       5.98       0.00       0.00       2.21       2.82       0.00       2.82        0.06    13.77   0.473
  sub4                       5.98       0.00       0.00       0.66       3.93       0.00       3.93        0.08    15.47   0.657
  sub5                       5.98       0.00       0.00       0.42       4.25       0.00       4.25        0.05    13.44   0.711
  sub7                       5.98       0.00       0.00       0.54       4.18       0.00       4.18        0.01     4.74   0.700
  sub8                       5.98       0.00       0.00       0.54       4.18       0.00       4.18        0.03     8.36   0.699
  sub9                       5.98       0.00       0.00       0.54       4.17       0.00       4.17        0.02     6.20   0.698
  sub10                      5.98       0.00       0.00       0.48       4.21       0.00       4.21        0.05    13.42   0.704
  sub11                      5.98       0.00       0.00       0.48       4.22       0.00       4.22        0.05    15.74   0.707
  sub12                      5.98       0.00       0.00       0.78       4.01       0.00       4.01        0.04    13.33   0.671
  sub14                      5.98       0.00       0.00       0.54       4.17       0.00       4.17        0.04    12.12   0.698
  sub15                      5.98       0.00       0.00       1.79       3.21       0.00       3.21        0.06    16.44   0.536
  sub16                      5.98       0.00       0.00       1.97       3.09       0.00       3.09        0.03    11.72   0.516
  sub17                      5.98       0.00       0.00       1.91       3.13       0.00       3.13        0.03     9.46   0.524
  sub22                      5.98       0.00       0.00       2.57       2.62       0.00       2.62        0.17    53.85   0.438
  sub23                      5.98       0.00       0.00       2.21       2.90       0.00       2.90        0.14    45.85   0.484
  sub60                      5.98       0.00       0.00       0.72       2.82       0.00       2.82        0.86    79.65   0.472
  sub61                      5.98       0.00       0.00       1.02       3.02       0.00       3.02        0.93    99.61   0.505
  sub62                      5.98       0.00       0.00       0.48       3.23       0.00       3.23        0.99   101.90   0.541
  sub63                      5.98       0.00       0.00       1.73       2.69       0.00       2.69        0.81    92.85   0.450
  sub64                      5.98       0.00       0.00       0.90       2.70       0.00       2.70        0.82    75.64   0.451
  sub65                      5.98       0.00       0.00       0.78       2.73       0.00       2.73        0.84    76.74   0.457
  sub66                      5.98       0.00       0.00       1.73       2.35       0.00       2.35        0.72    69.31   0.394
  sub67                      5.98       0.00       0.00       0.48       3.56       0.00       3.56        1.10   130.42   0.595
  sub68                      5.98       0.00       0.00       0.84       3.21       0.00       3.21        0.99   110.04   0.537
  sub69                      5.98       0.00       0.00       0.90       3.46       0.00       3.46        0.81   108.95   0.580
  sub70                      5.98       3.54       0.00       3.23       4.25       0.00       4.25        0.97    88.31   0.447
  sub71                      5.98       0.00       0.00       0.48       3.09       0.00       3.09        0.73    71.22   0.518
  sub72                      5.98       0.00       0.00       0.42       2.18       0.00       2.18        0.44    33.53   0.365
  sub73                      5.98       4.14       0.00       3.44       4.33       0.00       4.33        1.02    75.82   0.428
  sub74                      5.98       0.00       0.00       4.48       1.04       0.00       1.04        0.42    60.72   0.175
  
  
  ******************
  Node Depth Summary
  ******************
  
  ---------------------------------------------------------------------------------
                                 Average  Maximum  Maximum  Time of Max    Reported
                                   Depth    Depth      HGL   Occurrence   Max Depth
  Node                 Type       Meters   Meters   Meters  days hr:min      Meters
  ---------------------------------------------------------------------------------
  WS02001211           JUNCTION     0.61     0.78     5.62     0  07:20        0.78
  WS02001212           JUNCTION     0.34     0.49     5.55     0  07:20        0.49
  WS02001213           JUNCTION     0.58     0.73     5.49     0  07:21        0.73
  WS02003069           JUNCTION     0.41     0.55     5.14     0  02:54        0.55
  WS02003072           JUNCTION     0.48     0.62     4.99     0  02:54        0.61
  WS02003073           JUNCTION     0.28     0.38     4.44     0  02:55        0.38
  WS02003060           JUNCTION     0.37     0.49     5.42     0  02:53        0.49
  WS02003066           JUNCTION     0.23     0.29     5.85     0  02:48        0.29
  WS02003059           JUNCTION     0.64     0.78     5.47     0  02:53        0.78
  WS02003067           JUNCTION     0.56     0.69     6.01     0  02:47        0.69
  WS02004401           JUNCTION     0.66     0.83     6.83     0  02:44        0.83
  WS02004402           JUNCTION     0.69     0.86     6.82     0  02:44        0.86
  WS02004403           JUNCTION     0.71     0.88     6.81     0  02:44        0.88
  WS02004404           JUNCTION     0.79     0.95     6.80     0  02:44        0.95
  WS02004406           JUNCTION     0.79     0.94     6.77     0  02:45        0.94
  WS02004409           JUNCTION     0.48     0.65     6.42     0  02:46        0.65
  WS02004410           JUNCTION     0.50     0.67     6.39     0  02:47        0.67
  WS02004411           JUNCTION     0.51     0.68     6.36     0  02:47        0.68
  WS02004412           JUNCTION     0.53     0.68     6.32     0  02:47        0.68
  WS02004413           JUNCTION     0.68     0.84     6.31     0  02:47        0.84
  WS02004405           JUNCTION     0.78     0.94     6.79     0  02:44        0.94
  WS02006109           JUNCTION     0.74     0.95     7.56     0  02:41        0.95
  WS02006110           JUNCTION     0.73     0.90     7.49     0  02:41        0.90
  WS02006111           JUNCTION     0.21     0.28     6.99     0  02:41        0.28
  WS02006112           JUNCTION     0.83     1.03     6.91     0  02:44        1.03
  WS02006113           JUNCTION     0.33     0.44     7.34     0  02:41        0.44
  WS02006115           JUNCTION     0.55     0.73     6.87     0  02:44        0.73
  WS02006116           JUNCTION     0.63     0.81     6.85     0  02:44        0.81
  WS02006230           JUNCTION     0.70     0.99     7.73     0  02:41        0.99
  WS02006231           JUNCTION     0.47     0.67     7.79     0  02:41        0.67
  WS02006232           JUNCTION     0.61     0.80     7.84     0  02:41        0.80
  WS02006234           JUNCTION     0.52     0.74     7.90     0  02:41        0.74
  WS02006235           JUNCTION     0.56     0.78     7.94     0  02:41        0.78
  WS02006238           JUNCTION     0.58     0.81     7.95     0  02:41        0.81
  WS02006240           JUNCTION     0.48     0.73     8.03     0  02:41        0.73
  WS02006242           JUNCTION     0.53     0.80     8.07     0  02:41        0.80
  WS02006243           JUNCTION     0.42     0.69     8.11     0  02:41        0.69
  WS02006245           JUNCTION     0.40     0.66     8.15     0  02:41        0.66
  WS02006247           JUNCTION     0.42     0.67     8.17     0  02:41        0.67
  WS02006248           JUNCTION     0.37     0.60     8.19     0  02:40        0.60
  WS02006249           JUNCTION     0.40     0.62     8.21     0  02:40        0.62
  WS02006239           JUNCTION     0.54     0.78     7.99     0  02:41        0.78
  WS02006251           JUNCTION     0.39     0.64     8.31     0  02:40        0.64
  WS02006252           JUNCTION     0.35     0.58     8.83     0  07:00        0.58
  WS02006253           JUNCTION     0.42     0.67     8.31     0  02:40        0.66
  WS02006256           JUNCTION     1.01     2.35     9.28     0  00:00        1.21
  WS02004138           JUNCTION     0.13     0.19     7.44     0  07:12        0.19
  WS02004407           JUNCTION     0.22     0.29     6.60     0  02:45        0.29
  WS02006228           JUNCTION     0.73     0.98     7.63     0  02:41        0.98
  WS02006229           JUNCTION     0.71     0.97     7.67     0  02:41        0.97
  WS02006280           JUNCTION     0.06     0.15     8.42     0  02:18        0.15
  WS02006284           JUNCTION     0.35     0.48     8.88     0  02:18        0.48
  WS02006287           JUNCTION     0.08     0.21     9.17     0  02:18        0.21
  WSF200               JUNCTION     0.21     0.30     5.54     0  02:50        0.30
  HS02004901           JUNCTION     0.11     0.23    10.05     0  02:16        0.23
  HS02004881           JUNCTION     0.01     0.02     9.05     0  02:18        0.02
  HS02004876           JUNCTION     0.04     0.10     9.13     0  02:16        0.10
  HS02004870           JUNCTION     0.01     0.04     9.33     0  02:18        0.04
  HS02004862           JUNCTION     0.01     0.05     9.43     0  02:19        0.05
  HS02004856           JUNCTION     0.07     0.10     9.53     0  02:18        0.10
  HS02004852           JUNCTION     0.01     0.03     9.54     0  02:20        0.03
  HS02004848           JUNCTION     0.01     0.03     9.63     0  02:18        0.03
  HS02004842           JUNCTION     0.33     0.36     9.63     0  02:18        0.36
  HS02004837           JUNCTION     0.03     0.05     9.63     0  02:18        0.05
  HS02004830           JUNCTION     0.04     0.06     9.53     0  02:18        0.06
  HS02004824           JUNCTION     0.02     0.04     9.44     0  02:21        0.04
  HS02004817           JUNCTION     0.43     0.53     9.37     0  02:19        0.53
  HS02004807           JUNCTION     0.11     0.20     9.37     0  02:19        0.20
  HS02004802           JUNCTION     0.15     0.24     9.37     0  02:18        0.24
  HS02004799           JUNCTION     0.10     0.26     9.47     0  02:16        0.26
  HS02004792           JUNCTION     0.02     0.10     9.62     0  02:16        0.10
  HS02004788           JUNCTION     0.02     0.07     9.97     0  02:17        0.07
  HS02004785           JUNCTION     0.04     0.14    10.04     0  02:16        0.14
  HS02004777           JUNCTION     0.13     0.25    10.05     0  02:16        0.25
  HS02004770           JUNCTION     0.10     0.22    10.05     0  02:16        0.22
  HS02004480           JUNCTION     0.07     0.20     9.44     0  02:17        0.20
  HS02004479           JUNCTION     0.10     0.24     9.44     0  02:17        0.24
  HS02004478           JUNCTION     0.05     0.13     9.36     0  02:18        0.13
  YS02001745           JUNCTION     0.08     0.12     7.64     0  03:01        0.12
  YS02001748           JUNCTION     0.36     0.53     7.61     0  06:16        0.53
  YS02001751           JUNCTION     0.54     0.73     7.61     0  06:16        0.73
  YS02001754           JUNCTION     0.79     1.00     7.61     0  06:15        1.00
  YS02001762           JUNCTION     0.99     1.20     7.60     0  06:17        1.20
  YS02001765           JUNCTION     0.94     1.16     7.61     0  06:16        1.16
  YS02001767           JUNCTION     0.91     1.12     7.61     0  06:16        1.12
  YS02001770           JUNCTION     0.90     1.12     7.62     0  06:16        1.11
  YS02001774           JUNCTION     0.97     1.19     7.62     0  06:16        1.19
  YS02001779           JUNCTION     0.72     0.93     7.62     0  06:16        0.93
  YS02001882           JUNCTION     0.29     0.47     7.18     0  02:52        0.47
  YS02001884           JUNCTION     0.39     0.56     7.18     0  02:51        0.56
  YS02001759           JUNCTION     1.02     1.24     7.60     0  06:19        1.24
  YS02001887           JUNCTION     0.47     0.64     7.18     0  02:51        0.64
  YS02001890           JUNCTION     0.50     0.67     7.18     0  02:51        0.67
  YS02001898           JUNCTION     0.27     0.43     7.16     0  02:53        0.43
  YS02001901           JUNCTION     0.38     0.55     7.16     0  02:53        0.55
  YS02001904           JUNCTION     0.36     0.53     7.16     0  02:54        0.53
  YS02001907           JUNCTION     0.69     0.87     7.16     0  02:53        0.87
  YS02001910           JUNCTION     0.48     0.66     7.16     0  02:53        0.66
  YS02001915           JUNCTION     0.28     0.44     7.16     0  02:54        0.44
  YS02001918           JUNCTION     0.08     0.10     7.16     0  03:03        0.10
  YS02001619           JUNCTION     0.50     0.69     7.62     0  06:16        0.68
  YS02001629           JUNCTION     0.85     1.06     7.61     0  06:17        1.06
  YS02001641           JUNCTION     0.96     1.19     7.63     0  06:19        1.18
  YS02001644           JUNCTION     0.96     1.20     7.63     0  06:19        1.19
  YS02001652           JUNCTION     0.81     1.02     7.61     0  06:21        1.01
  YS02001655           JUNCTION     0.57     0.76     7.61     0  06:15        0.76
  YS02001920           JUNCTION     0.18     0.21     7.22     0  03:02        0.21
  YS02001923           JUNCTION     0.07     0.09     7.35     0  03:02        0.09
  YS02001926           JUNCTION     0.14     0.18     7.62     0  03:01        0.18
  YS02001929           JUNCTION     0.07     0.09     7.78     0  03:01        0.09
  YS02001658           JUNCTION     0.31     0.47     7.61     0  06:17        0.47
  YS02001661           JUNCTION     0.16     0.22     7.62     0  06:18        0.22
  YS02001664           JUNCTION     0.07     0.12     8.04     0  02:46        0.12
  YS02001622           JUNCTION     0.53     0.70     7.61     0  06:16        0.70
  YS02001633           JUNCTION     0.94     1.16     7.62     0  06:17        1.16
  YS02001649           JUNCTION     1.00     1.22     7.61     0  06:15        1.22
  YS02001757           JUNCTION     1.12     1.35     7.61     0  06:15        1.34
  YS02001895           JUNCTION     0.26     0.43     7.17     0  02:56        0.43
  YS02001625           JUNCTION     0.81     1.01     7.61     0  06:17        1.00
  YS02163301           JUNCTION     0.88     1.10     7.62     0  06:17        1.09
  YS02163601           JUNCTION     1.00     1.22     7.62     0  06:19        1.22
  YS02164001           JUNCTION     0.94     1.17     7.63     0  06:19        1.16
  YS02001647           JUNCTION     0.79     1.02     7.63     0  06:19        1.01
  YSB1154              JUNCTION     0.24     0.39     9.44     0  02:17        0.39
  YSB6556              JUNCTION     0.14     0.27     9.44     0  02:17        0.27
  YSB1174              JUNCTION     0.19     0.33     9.44     0  02:17        0.33
  YSB1171              JUNCTION     0.39     0.54     9.44     0  02:16        0.54
  YS02006553           JUNCTION     0.70     0.88     7.16     0  02:54        0.88
  YS02006561           JUNCTION     0.14     0.23     6.89     0  02:51        0.23
  YS02006556           JUNCTION     0.67     0.85     7.16     0  02:57        0.85
  YS02006558           JUNCTION     0.71     0.89     7.16     0  02:57        0.89
  YS02001783           JUNCTION     0.25     0.41     6.55     0  02:54        0.41
  YS02001784           JUNCTION     0.28     0.44     6.51     0  02:55        0.44
  YS02001786           JUNCTION     0.24     0.37     6.40     0  02:55        0.37
  YS02001788           JUNCTION     0.18     0.28     6.26     0  02:55        0.28
  YS02001790           JUNCTION     0.21     0.34     5.99     0  02:56        0.34
  YS02001791           JUNCTION     0.14     0.22     5.69     0  02:56        0.22
  YS02001793           JUNCTION     0.09     0.14     4.97     0  03:18        0.14
  WS02004139           JUNCTION     0.55     0.73     5.64     0  07:20        0.73
  WSC                  OUTFALL      0.28     0.38     1.05     0  02:55        0.38
  3                    OUTFALL      0.07     0.23     6.23     0  00:00        0.20
  4                    OUTFALL      0.02     0.11     7.11     0  02:40        0.11
  5                    OUTFALL      0.00     0.00     5.00     0  00:00        0.00
  JK-storage           STORAGE      0.29     3.00     3.80     0  00:00        2.78
  CC-storage           STORAGE      0.35     0.59     7.59     0  06:17        0.59
  XR-storage           STORAGE      7.41     7.72     5.72     0  02:06        7.72
  
  
  *******************
  Node Inflow Summary
  *******************
  
  -------------------------------------------------------------------------------------------------
                                  Maximum  Maximum                  Lateral       Total        Flow
                                  Lateral    Total  Time of Max      Inflow      Inflow     Balance
                                   Inflow   Inflow   Occurrence      Volume      Volume       Error
  Node                 Type           LPS      LPS  days hr:min    10^6 ltr    10^6 ltr     Percent
  -------------------------------------------------------------------------------------------------
  WS02001211           JUNCTION      7.35   387.37     0  07:19       0.207        5.57       0.721
  WS02001212           JUNCTION      0.00   386.97     0  07:19           0        5.53       0.341
  WS02001213           JUNCTION      0.00   386.77     0  07:20           0        5.51       0.418
  WS02003069           JUNCTION      0.32   863.42     0  02:53     0.00902        12.6       0.205
  WS02003072           JUNCTION      0.00   863.24     0  02:54           0        12.5       0.258
  WS02003073           JUNCTION      1.82   865.62     0  02:54      0.0514        12.5       0.287
  WS02003060           JUNCTION     16.53   862.21     0  02:52       0.466        12.6       0.197
  WS02003066           JUNCTION      0.00   512.75     0  02:47           0        6.66       0.051
  WS02003059           JUNCTION      0.00   386.68     0  07:21           0         5.5       0.720
  WS02003067           JUNCTION      0.00   512.72     0  02:47           0        6.67       0.113
  WS02004401           JUNCTION      0.00   515.69     0  02:43           0        6.87       0.276
  WS02004402           JUNCTION      0.00   515.40     0  02:44           0        6.85       0.263
  WS02004403           JUNCTION      0.00   515.31     0  02:44           0        6.83       0.242
  WS02004404           JUNCTION      0.16   515.23     0  02:44     0.00457        6.82       0.185
  WS02004406           JUNCTION      0.00   515.23     0  02:44           0        6.79       0.451
  WS02004409           JUNCTION      0.00   515.00     0  02:45           0        6.75       0.181
  WS02004410           JUNCTION      0.00   514.21     0  02:45           0        6.74       0.208
  WS02004411           JUNCTION      0.00   513.54     0  02:46           0        6.73       0.217
  WS02004412           JUNCTION      0.00   513.15     0  02:46           0        6.71       0.241
  WS02004413           JUNCTION      0.00   512.82     0  02:47           0         6.7       0.369
  WS02004405           JUNCTION      0.04   515.15     0  02:45     0.00107        6.81       0.280
  WS02006109           JUNCTION      1.23   513.43     0  02:42      0.0347        6.95       0.293
  WS02006110           JUNCTION      0.00   513.46     0  02:42           0        6.93       0.271
  WS02006111           JUNCTION      0.00   532.42     0  02:42           0        6.91       0.054
  WS02006112           JUNCTION      9.46   522.42     0  02:41      0.0268        6.93       0.371
  WS02006113           JUNCTION      0.00   513.90     0  02:42           0        6.91       0.131
  WS02006115           JUNCTION      0.00   520.24     0  02:41           0         6.9       0.253
  WS02006116           JUNCTION      0.00   517.28     0  02:42           0        6.89       0.246
  WS02006230           JUNCTION     10.28   393.06     0  03:42        0.29        6.04       0.236
  WS02006231           JUNCTION      0.00   382.78     0  03:42           0        5.76       0.142
  WS02006232           JUNCTION      0.00   382.78     0  03:42           0        5.77       0.269
  WS02006234           JUNCTION      0.00   382.75     0  03:41           0        5.78       0.119
  WS02006235           JUNCTION      0.00   382.76     0  03:41           0        5.82       0.181
  WS02006238           JUNCTION      0.00   343.40     0  07:10           0        3.87       0.184
  WS02006240           JUNCTION      0.00   337.52     0  07:10           0        3.86       0.281
  WS02006242           JUNCTION      0.00   334.72     0  07:10           0        3.87       0.352
  WS02006243           JUNCTION      0.00   330.16     0  07:11           0        3.86      -0.082
  WS02006245           JUNCTION      0.00   332.61     0  07:00           0        3.87       0.261
  WS02006247           JUNCTION      0.00   336.25     0  07:00           0        3.88       0.169
  WS02006248           JUNCTION      0.00   339.77     0  07:00           0        3.88       0.049
  WS02006249           JUNCTION      0.00   421.12     0  02:40           0        4.23       0.312
  WS02006239           JUNCTION      0.00   341.40     0  07:10           0        3.87       0.274
  WS02006251           JUNCTION      0.08   422.18     0  02:40     0.00217        4.26       0.199
  WS02006252           JUNCTION      0.00   400.00     0  03:00           0        4.09       0.011
  WS02006253           JUNCTION      1.44    42.02     0  02:17     0.00347        0.17       2.217
  WS02006256           JUNCTION      0.00   600.00     0  00:00           0        4.32       0.047
  WS02004138           JUNCTION      0.00   380.00     0  07:10           0        5.39       0.045
  WS02004407           JUNCTION      0.00   515.04     0  02:45           0        6.76       0.088
  WS02006228           JUNCTION      0.00   512.20     0  02:41           0        6.93       0.217
  WS02006229           JUNCTION      0.00   512.37     0  02:41           0        6.95       0.167
  WS02006280           JUNCTION      0.00   215.19     0  02:18           0        0.92       0.008
  WS02006284           JUNCTION      0.10   215.18     0  02:18      0.0027       0.921       0.116
  WS02006287           JUNCTION      0.00   215.07     0  02:18           0       0.919       0.079
  WSF200               JUNCTION      0.00   512.72     0  02:47           0        6.66       0.044
  HS02004901           JUNCTION     11.72    11.72     0  02:10      0.0323      0.0324       5.728
  HS02004881           JUNCTION      4.74    40.91     0  02:17      0.0141       0.148       0.218
  HS02004876           JUNCTION      7.56    36.49     0  02:18       0.027       0.135       0.393
  HS02004870           JUNCTION      8.36    29.08     0  02:18      0.0267       0.108       0.099
  HS02004862           JUNCTION      6.89    21.26     0  02:18      0.0323      0.0813       0.208
  HS02004856           JUNCTION      6.20    14.42     0  02:18      0.0201      0.0505       2.933
  HS02004852           JUNCTION      0.00     8.60     0  02:18           0      0.0305       0.167
  HS02004848           JUNCTION     13.77    13.77     0  02:21      0.0636      0.0636       0.069
  HS02004842           JUNCTION      0.00     5.64     0  02:31           0      0.0461      39.268
  HS02004837           JUNCTION     19.77    24.54     0  02:17       0.225       0.259       0.316
  HS02004830           JUNCTION      0.15    24.67     0  02:18     0.00423       0.249       0.497
  HS02004824           JUNCTION     15.52    40.00     0  02:21      0.0833       0.331       0.163
  HS02004817           JUNCTION      0.60    40.59     0  02:21      0.0169       0.347       5.040
  HS02004807           JUNCTION     15.74    54.93     0  02:19       0.049        0.38       1.126
  HS02004802           JUNCTION      0.00    55.25     0  02:21           0       0.375       1.090
  HS02004799           JUNCTION     12.12   136.57     0  02:15      0.0397       0.479       0.476
  HS02004792           JUNCTION     54.13   124.69     0  02:15       0.173        0.44       0.093
  HS02004788           JUNCTION     18.11    72.61     0  02:16       0.102       0.268       0.145
  HS02004785           JUNCTION      0.15    54.86     0  02:15     0.00423       0.168       0.289
  HS02004777           JUNCTION      0.03    55.19     0  02:14    0.000846       0.168       3.182
  HS02004770           JUNCTION     45.85    56.33     0  02:12       0.138       0.169       1.870
  HS02004480           JUNCTION      0.00   161.04     0  02:16           0       0.559       0.131
  HS02004479           JUNCTION      0.00    24.97     0  02:18           0      0.0926       0.794
  HS02004478           JUNCTION      0.00   215.06     0  02:18           0        0.92       0.067
  YS02001745           JUNCTION     79.65    79.65     0  03:01       0.855       0.855       0.102
  YS02001748           JUNCTION      0.04   129.05     0  04:10     0.00127        0.89       0.702
  YS02001751           JUNCTION      0.01   172.01     0  04:09     0.00031       0.884       1.656
  YS02001754           JUNCTION      0.26   121.96     0  04:08     0.00733       0.859       2.503
  YS02001762           JUNCTION      0.00   117.73     0  02:40           0        0.93       2.279
  YS02001765           JUNCTION      0.00   124.27     0  02:37           0       0.931       2.545
  YS02001767           JUNCTION      0.54   127.25     0  02:56      0.0151       0.953       3.802
  YS02001770           JUNCTION    102.05   129.85     0  02:57       0.998        1.09       2.825
  YS02001774           JUNCTION      0.00    80.19     0  04:26           0       0.215      12.543
  YS02001779           JUNCTION      0.01    73.61     0  04:26    0.000141      0.0967      15.377
  YS02001882           JUNCTION      0.00     4.20     0  02:10           0     0.00546      44.890
  YS02001884           JUNCTION      0.00    11.85     0  02:07           0      0.0218      29.119
  YS02001759           JUNCTION     99.65   213.24     0  02:59       0.931        1.83       1.243
  YS02001887           JUNCTION    130.87   130.87     0  02:44        1.11        1.12       0.647
  YS02001890           JUNCTION      0.00   130.33     0  02:43           0         1.1       0.724
  YS02001898           JUNCTION      0.00   130.28     0  02:51           0        1.08       0.206
  YS02001901           JUNCTION      0.00   130.37     0  02:51           0        1.08       0.515
  YS02001904           JUNCTION      0.00   130.16     0  02:52           0        1.08       0.479
  YS02001907           JUNCTION      0.00   236.93     0  02:54           0        2.32       0.962
  YS02001910           JUNCTION      0.00   107.90     0  02:54           0        1.25       0.824
  YS02001915           JUNCTION     71.24   107.34     0  03:01       0.731        1.25       0.368
  YS02001918           JUNCTION      0.00    36.38     0  03:02           0       0.523       0.220
  YS02001619           JUNCTION     69.31    69.31     0  03:01       0.721       0.721       0.920
  YS02001629           JUNCTION      0.00   111.57     0  04:10           0       0.682       2.865
  YS02001641           JUNCTION      0.00   153.42     0  03:05           0        1.42       1.355
  YS02001644           JUNCTION     75.68   228.31     0  03:05        0.82        2.22       1.073
  YS02001652           JUNCTION      0.00   114.23     0  02:43           0       0.824       2.519
  YS02001655           JUNCTION      0.15   167.24     0  04:06     0.00434       0.856       1.884
  YS02001920           JUNCTION      2.87    36.40     0  03:02      0.0809       0.525       0.394
  YS02001923           JUNCTION      0.04    33.53     0  03:01     0.00106       0.445       0.069
  YS02001926           JUNCTION      0.05    33.57     0  03:01     0.00147       0.446       0.494
  YS02001929           JUNCTION     33.53    33.53     0  03:01       0.445       0.445       0.068
  YS02001658           JUNCTION      0.00   126.06     0  04:04           0       0.871       0.751
  YS02001661           JUNCTION      0.00    92.85     0  02:46           0       0.826       0.086
  YS02001664           JUNCTION     92.85    92.85     0  02:46       0.813       0.813       0.020
  YS02001622           JUNCTION      0.00    84.25     0  02:50           0       0.719       2.662
  YS02001633           JUNCTION     76.94   156.74     0  03:04       0.844        1.47       2.117
  YS02001649           JUNCTION      0.00   321.00     0  03:06           0        2.95       1.250
  YS02001757           JUNCTION      0.00   584.75     0  03:01           0        5.49       1.694
  YS02001895           JUNCTION      0.00   130.12     0  02:51           0        1.09       0.347
  YS02001625           JUNCTION      0.00   123.16     0  04:29           0       0.717       4.984
  YS02163301           JUNCTION      0.00    95.51     0  03:21           0       0.656       3.596
  YS02163601           JUNCTION      0.11   152.54     0  02:54      0.0031        1.44       2.070
  YS02164001           JUNCTION      0.00   152.59     0  02:52           0        1.42       1.276
  YS02001647           JUNCTION      0.00   229.07     0  03:05           0        2.18       1.191
  YSB1154              JUNCTION     13.44    13.44     0  02:15      0.0481      0.0494       3.008
  YSB6556              JUNCTION      0.00    13.43     0  02:17           0      0.0504       2.533
  YSB1174              JUNCTION     13.33    13.33     0  02:09       0.035      0.0361       3.690
  YSB1171              JUNCTION      0.00    24.92     0  02:16           0      0.0921       7.373
  YS02006553           JUNCTION      0.00   236.59     0  02:54           0        2.31       0.624
  YS02006561           JUNCTION      0.00   352.34     0  02:51           0        3.27       0.020
  YS02006556           JUNCTION      0.00   236.42     0  02:54           0        2.31       0.450
  YS02006558           JUNCTION    110.92   346.71     0  02:50        1.01         3.3       0.139
  YS02001783           JUNCTION      0.00   346.57     0  02:51           0        3.27       0.048
  YS02001784           JUNCTION      1.06   347.40     0  02:55      0.0299         3.3       0.078
  YS02001786           JUNCTION      0.06   347.44     0  02:55     0.00159         3.3       0.076
  YS02001788           JUNCTION      0.07   347.54     0  02:55       0.002         3.3       0.044
  YS02001790           JUNCTION      0.15   347.69     0  02:55     0.00437         3.3       0.055
  YS02001791           JUNCTION      0.00   347.65     0  02:56           0         3.3       0.027
  YS02001793           JUNCTION      0.00   347.65     0  02:56           0         3.3       0.012
  WS02004139           JUNCTION      0.32   380.32     0  07:12     0.00905        5.39       0.618
  WSC                  OUTFALL       0.00   866.21     0  02:55           0        12.5       0.000
  3                    OUTFALL       0.00   597.65     0  00:00           0        2.34       0.000
  4                    OUTFALL       0.00   130.10     0  02:40           0       0.336       0.000
  5                    OUTFALL       0.00     0.00     0  00:00           0           0       0.000 ltr
  JK-storage           STORAGE       0.00   347.65     0  02:56           0        3.45     -20.193
  CC-storage           STORAGE       0.00   584.56     0  03:02           0        5.38       0.487
  XR-storage           STORAGE     328.89   328.89     0  02:57        7.07        7.67      -0.002
  
  
  **********************
  Node Surcharge Summary
  **********************
  
  Surcharging occurs when water rises above the top of the highest conduit.
  ---------------------------------------------------------------------
                                               Max. Height   Min. Depth
                                   Hours       Above Crown    Below Rim
  Node                 Type      Surcharged         Meters       Meters
  ---------------------------------------------------------------------
  WS02006109           JUNCTION        1.52          0.126        1.694
  WS02006112           JUNCTION        0.26          0.027        1.653
  WS02006232           JUNCTION        1.54          0.101        1.379
  WS02006234           JUNCTION        0.17          0.025        1.215
  WS02006235           JUNCTION        1.04          0.071        1.219
  WS02006238           JUNCTION        1.28          0.089        1.341
  WS02006240           JUNCTION        0.28          0.023        1.367
  WS02006242           JUNCTION        0.99          0.071        0.749
  WS02006239           JUNCTION        0.51          0.041        1.249
  WS02006252           JUNCTION        1.46          0.184        0.916
  WS02006256           JUNCTION        0.01          1.050        0.000
  WS02006228           JUNCTION        1.45          0.148        2.052
  YS02001762           JUNCTION        5.06          0.204        0.946
  YS02001765           JUNCTION        3.87          0.155        0.945
  YS02001767           JUNCTION        2.19          0.121        0.909
  YS02001770           JUNCTION        1.71          0.090        0.830
  YS02001774           JUNCTION        4.47          0.194        0.856
  YS02001759           JUNCTION        5.21          0.240        0.970
  YS02001641           JUNCTION        4.20          0.190        0.910
  YS02001644           JUNCTION        4.32          0.196        0.724
  YS02001633           JUNCTION        2.92          0.144        0.916
  YS02001649           JUNCTION        5.17          0.223        0.827
  YS02001757           JUNCTION        5.34          0.346        0.864
  YS02001625           JUNCTION        0.02          0.005        0.775
  YS02163301           JUNCTION        1.86          0.098        0.932
  YS02163601           JUNCTION        5.15          0.225        0.855
  YS02164001           JUNCTION        3.64          0.167        0.933
  YS02001647           JUNCTION        0.05          0.018        0.882
  
  
  *********************
  Node Flooding Summary
  *********************
  
  Flooding refers to all water that overflows a node, whether it ponds or not.
  --------------------------------------------------------------------------
                                                             Total   Maximum
                                 Maximum   Time of Max       Flood    Ponded
                        Hours       Rate    Occurrence      Volume     Depth
  Node                 Flooded       LPS   days hr:min    10^6 ltr    Meters
  --------------------------------------------------------------------------
  WS02006256              0.01    406.11      0  00:00       0.001     0.000
  XR-storage              3.66    325.27      0  02:40       1.614     0.000
  
  
  **********************
  Storage Volume Summary
  **********************
  
  --------------------------------------------------------------------------------------------------
                         Average     Avg  Evap Exfil       Maximum     Max    Time of Max    Maximum
                          Volume    Pcnt  Pcnt  Pcnt        Volume    Pcnt     Occurrence    Outflow
  Storage Unit           1000 m3    Full  Loss  Loss       1000 m3    Full    days hr:min        LPS
  --------------------------------------------------------------------------------------------------
  JK-storage               0.014       5     0     0         0.151      52       0  00:00     600.00
  CC-storage               0.967       6     0     0         1.650      11       0  06:17     400.00
  XR-storage               0.889      96     0     0         0.926     100       0  02:06     380.00
  
  
  ***********************
  Outfall Loading Summary
  ***********************
  
  -----------------------------------------------------------
                         Flow       Avg       Max       Total
                         Freq      Flow      Flow      Volume
  Outfall Node           Pcnt       LPS       LPS    10^6 ltr
  -----------------------------------------------------------
  WSC                   99.99    523.43    866.21      12.511
  3                     74.59    167.29    597.65       2.345
  4                     29.00     59.04    130.10       0.336
  5                      0.00      0.00      0.00       0.000
  -----------------------------------------------------------
  System                50.90    749.76   1240.99      15.192
  
  
  ********************
  Link Flow Summary
  ********************
  
  -----------------------------------------------------------------------------
                                 Maximum  Time of Max   Maximum    Max/    Max/
                                  |Flow|   Occurrence   |Veloc|    Full    Full
  Link                 Type          LPS  days hr:min     m/sec    Flow   Depth
  -----------------------------------------------------------------------------
  WS02003066WSF200     CONDUIT    512.72     0  02:47      2.79    0.09    0.23
  WS02006287WS02006284 CONDUIT    215.08     0  02:18      1.65    0.10    0.22
  WS02006284WS02006280 CONDUIT    215.19     0  02:18      1.89    0.09    0.20
  WS02006280WS02006229 CONDUIT    215.19     0  02:18      3.04    0.05    0.15
  WS02006229WS02006228 CONDUIT    512.20     0  02:41      1.02    1.70    1.00
  WS02006256WS02006235 CONDUIT    177.52     0  00:01      2.73    1.88    1.00
  WS02006253WS02006251 CONDUIT     42.17     0  02:17      0.50    0.13    0.93
  WS02006252WS02006251 CONDUIT    400.17     0  07:00      3.18    1.47    1.00
  WS02006251WS02006249 CONDUIT    421.12     0  02:40      1.16    1.21    0.90
  WS02006249WS02006248 CONDUIT    339.77     0  07:00      1.09    1.86    0.86
  WS02006248WS02006247 CONDUIT    336.25     0  07:00      1.05    0.73    0.90
  WS02006247WS02006245 CONDUIT    332.61     0  07:00      1.01    2.64    0.94
  WS02006245WS02006243 CONDUIT    330.16     0  07:11      1.04    0.98    0.96
  WS02006243WS02006242 CONDUIT    334.72     0  07:10      0.91    0.72    1.00
  WS02006242WS02006240 CONDUIT    337.52     0  07:10      0.90    1.34    1.00
  WS02006240WS02006239 CONDUIT    341.40     0  07:10      0.94    1.07    1.00
  WS02006239WS02006238 CONDUIT    343.40     0  07:10      0.91    1.10    1.00
  WS02006238WS02006235 CONDUIT    343.22     0  07:10      1.32    0.77    1.00
  WS02006235WS02006234 CONDUIT    382.75     0  03:41      1.01    4.04    1.00
  WS02006234WS02006232 CONDUIT    382.78     0  03:42      1.17    0.77    1.00
  WS02006232WS02006231 CONDUIT    382.78     0  03:42      1.04    0.80    0.97
  WS02006231WS02006230 CONDUIT    382.79     0  03:42      1.33    5.81    0.91
  WS02006230WS02006229 CONDUIT    393.28     0  03:42      1.02    8.75    1.00
  WS02006228WS02006109 CONDUIT    512.20     0  02:42      1.02    2.24    1.00
  WS02006116WS02004401 CONDUIT    515.69     0  02:43      0.75    0.71    0.82
  WS02006115WS02006116 CONDUIT    517.28     0  02:42      0.83    0.66    0.74
  WS02006113WS02006111 CONDUIT    532.42     0  02:42      2.42    0.64    0.45
  WS02006112WS02006115 CONDUIT    520.24     0  02:41      0.72    0.31    0.86
  WS02006111WS02006112 CONDUIT    518.18     0  02:41      1.45    0.25    0.67
  WS02006110WS02006113 CONDUIT    513.90     0  02:42      1.23    0.47    0.78
  WS02006109WS02006110 CONDUIT    513.46     0  02:42      1.02    0.99    1.00
  WS02004411WS02004412 CONDUIT    513.15     0  02:46      0.90    0.73    0.68
  WS02004401WS02004402 CONDUIT    515.40     0  02:44      0.73    0.62    0.85
  WS02004413WS02003067 CONDUIT    512.72     0  02:47      1.08    0.22    0.58
  WS02004412WS02004413 CONDUIT    512.82     0  02:47      0.80    0.34    0.76
  WS02004410WS02004411 CONDUIT    513.54     0  02:46      0.92    0.70    0.67
  WS02004409WS02004410 CONDUIT    514.21     0  02:45      0.94    0.67    0.66
  WS02004407WS02004409 CONDUIT    515.00     0  02:45      1.43    0.18    0.47
  WS02004406WS02004407 CONDUIT    515.04     0  02:45      1.01    0.23    0.62
  WS02004405WS02004406 CONDUIT    515.23     0  02:44      0.67    1.02    0.94
  WS02004404WS02004405 CONDUIT    515.11     0  02:45      0.67    5.05    0.95
  WS02004403WS02004404 CONDUIT    515.07     0  02:44      0.69    0.37    0.91
  WS02004402WS02004403 CONDUIT    515.31     0  02:44      0.71    0.74    0.87
  WS02004139WS02001211 CONDUIT    380.02     0  07:19      0.58    0.48    0.59
  WS02004138WS02004139 CONDUIT    380.00     0  07:12      1.27    0.08    0.43
  WS02003067WS02003066 CONDUIT    512.75     0  02:47      1.18    0.16    0.41
  WS02001213WS02003059 CONDUIT    386.68     0  07:21      0.67    0.64    0.74
  WS02001212WS02001213 CONDUIT    386.77     0  07:20      1.30    0.60    0.45
  WS02001211WS02001212 CONDUIT    386.97     0  07:19      0.76    0.30    0.63
  WS02003072WS02003073 CONDUIT    863.80     0  02:54      1.68    1.87    0.47
  WS02003069WS02003072 CONDUIT    863.24     0  02:54      1.58    0.42    0.49
  WS02003060WS02003069 CONDUIT    863.10     0  02:53      1.83    0.34    0.43
  WS02003059WS02003060 CONDUIT    386.71     0  07:21      0.92    0.25    0.64
  HS02004901HS02004770 CONDUIT     10.81     0  02:15      0.05    0.04    0.32
  HS02004876HS02004881 CONDUIT     36.57     0  02:18      0.58    0.39    0.09
  HS02004870HS02004876 CONDUIT     29.06     0  02:18      0.41    0.02    0.10
  HS02004842HS02004848 CONDUIT      5.64     0  02:31      0.03    0.00    0.28
  HS02004837HS02004842 CONDUIT      5.83     0  02:31      0.41    0.00    0.29
  HS02004830HS02004837 CONDUIT     24.52     0  02:18      0.45    0.02    0.08
  HS02004824HS02004830 CONDUIT     24.67     0  02:19      0.49    0.03    0.07
  HS02004817HS02004824 CONDUIT     39.99     0  02:21      0.17    0.02    0.40
  HS02004770HS02004777 CONDUIT     55.16     0  02:14      0.23    0.10    0.34
  HS02004799HS02004480 CONDUIT    136.34     0  02:16      0.61    0.17    0.32
  HS02004792HS02004799 CONDUIT    124.63     0  02:16      0.70    0.08    0.25
  HS02004788HS02004792 CONDUIT     72.55     0  02:17      0.85    0.05    0.12
  HS02004785HS02004788 CONDUIT     54.76     0  02:16      0.53    0.41    0.15
  HS02004777HS02004785 CONDUIT     54.71     0  02:15      0.28    0.07    0.28
  HS02004480HS02004478 CONDUIT    161.00     0  02:17      0.98    0.68    0.23
  HS02004479HS02004480 CONDUIT     25.20     0  02:19      0.15    0.02    0.31
  HS02004862HS02004870 CONDUIT     21.22     0  02:19      0.48    0.02    0.06
  HS02004848HS02004852 CONDUIT      8.60     0  02:18      0.32    0.01    0.04
  HS02004856HS02004862 CONDUIT     14.39     0  02:18      0.35    0.01    0.06
  HS02004852HS02004856 CONDUIT      8.57     0  02:20      0.13    0.01    0.09
  HS02004802HS02004478 CONDUIT     55.65     0  02:22      0.31    0.05    0.26
  HS02004478WS02006287 CONDUIT    215.07     0  02:18      1.34    0.06    0.18
  HS02004817HS02004807 CONDUIT     41.18     0  02:23      0.11    0.02    0.52
  HS02004807HS02004802 CONDUIT     55.25     0  02:21      0.26    0.11    0.31
  YS02001759YS02001757 CONDUIT    214.36     0  02:59      0.27    0.15    1.00
  YS02001762YS02001759 CONDUIT    114.35     0  02:59      0.18    0.13    1.00
  YS02001765YS02001762 CONDUIT    117.73     0  02:40      0.23    0.11    1.00
  YS02001770YS02001767 CONDUIT    126.72     0  02:56      0.32    0.50    1.00
  YS02001774YS02001770 CONDUIT     80.19     0  04:26      0.15    0.05    1.00
  YS02001779YS02001774 CONDUIT     73.60     0  04:26      0.10    0.04    0.97
  YS02001649YS02001757 CONDUIT    323.04     0  03:06      0.41    0.20    1.00
  YS02001767YS02001765 CONDUIT    124.27     0  02:37      0.26    0.16    1.00
  YS02006561YS02001783 CONDUIT    346.57     0  02:51      1.84    0.18    0.40
  YS02001783YS02001784 CONDUIT    346.34     0  02:55      1.27    0.48    0.53
  YS02001784YS02001785 CONDUIT    347.38     0  02:55      1.36    0.81    0.51
  YS02001788YS02001790 CONDUIT    347.53     0  02:55      1.92    0.26    0.39
  YS02001790YS02001791 CONDUIT    347.65     0  02:56      2.20    0.38    0.35
  YS02001791YS02001793 CONDUIT    347.65     0  02:56      4.53    0.15    0.21
  YS02001910YS02001907 CONDUIT    108.02     0  02:59      0.49    0.06    0.76
  YS02001786YS02001788 CONDUIT    347.47     0  02:55      1.80    0.67    0.41
  YS02001915YS02001910 CONDUIT    107.90     0  02:54      0.44    0.05    0.55
  YS02001918YS02001915 CONDUIT     36.35     0  03:03      0.44    0.02    0.27
  YS02001923YS02001920 CONDUIT     33.53     0  03:02      0.47    0.02    0.15
  YS02001926YS02001923 CONDUIT     33.50     0  03:01      0.51    0.05    0.14
  YS02001929YS02001926 CONDUIT     33.52     0  03:01      0.54    0.02    0.13
  YS02001920YS02001918 CONDUIT     36.38     0  03:02      0.48    0.04    0.15
  YS02001629YS02163301 CONDUIT     95.51     0  03:21      0.13    0.12    1.00
  YS02001619YS02001622 CONDUIT     84.25     0  02:50      0.66    0.12    0.69
  YS02001622YS02001625 CONDUIT     86.88     0  04:10      0.25    0.05    0.85
  YS02001625YS02001629 CONDUIT    111.57     0  04:10      0.25    0.05    0.84
  YS02163301YS02001633 CONDUIT     86.98     0  03:16      0.11    0.08    1.00
  YS02163601YS02164001 CONDUIT    152.59     0  02:52      0.19    0.14    1.00
  YS02164001YS02001641 CONDUIT    153.42     0  03:05      0.20    0.21    1.00
  YS02001641YS02001644 CONDUIT    155.44     0  03:05      0.20    0.50    1.00
  YS02001647YS02001649 CONDUIT    243.34     0  03:03      0.32    0.13    1.00
  YS02006553YS02006556 CONDUIT    236.42     0  02:54      0.34    0.20    0.84
  YS02006556YS02006558 CONDUIT    236.22     0  02:54      0.33    0.19    0.87
  YSB6556YSB1171       CONDUIT     13.62     0  02:19      0.06    0.01    0.58
  YS02001907YS02006553 CONDUIT    236.59     0  02:54      0.28    0.28    0.96
  YS02006558YS02006561 CONDUIT    352.34     0  02:51      2.40    0.78    0.52
  YS02001633YS02163601 CONDUIT    152.43     0  02:54      0.19    0.16    1.00
  YS02001644YS02001647 CONDUIT    229.07     0  03:05      0.30    0.13    1.00
  YS02001745YS02001748 CONDUIT     79.65     0  03:01      1.43    0.03    0.27
  YS02001748YS02001751 CONDUIT    172.00     0  04:09      1.10    0.09    0.62
  YS02001751YS02001754 CONDUIT     94.72     0  03:16      0.97    0.05    0.84
  YS02001754YS02001757 CONDUIT    146.60     0  04:12      0.33    0.06    1.00
  YS02001882YS02001884 CONDUIT      4.20     0  02:10      0.06    0.00    0.48
  YS02001884YS02001887 CONDUIT     11.85     0  02:07      0.06    0.02    0.58
  YS02001890YS02001895 CONDUIT    130.12     0  02:51      0.30    0.06    0.55
  YS02001895YS02001898 CONDUIT    130.28     0  02:51      0.49    0.23    0.41
  YS02001898YS02001901 CONDUIT    130.37     0  02:51      0.34    0.08    0.49
  YS02001901YS02001904 CONDUIT    130.16     0  02:52      0.30    0.20    0.54
  YS02001904YS02001907 CONDUIT    130.36     0  02:52      0.22    0.05    0.70
  YS02001887YS02001890 CONDUIT    130.33     0  02:43      0.25    0.22    0.63
  YS02001652YS02001649 CONDUIT    151.46     0  04:06      0.33    0.08    1.00
  YS02001655YS02001652 CONDUIT    114.23     0  02:43      1.05    0.06    0.87
  YS02001658YS02001655 CONDUIT    167.09     0  04:06      1.27    0.07    0.61
  YS02001661YS02001658 CONDUIT     92.84     0  02:46      1.48    0.04    0.30
  YS02001664YS02001661 CONDUIT     92.85     0  02:46      1.16    0.03    0.16
  YSB1154YSB6556       CONDUIT     13.43     0  02:17      0.19    0.02    0.47
  YSB1174YSB1171       CONDUIT     12.36     0  02:11      0.06    0.02    0.59
  YSB1171HS02004479    CONDUIT     24.97     0  02:18      0.54    0.02    0.45
  HS02004881HS02006253 CONDUIT     40.91     0  02:18      1.70    0.01    0.25
  YS02001793JiankangQianchi CONDUIT    347.65     0  02:56     13.15    0.03    0.56
  YS02001757CaochengTiaoxuchi CONDUIT    584.56     0  03:02      1.30    0.26    0.80
  WSF200WS02003060     CONDUIT    511.63     0  02:51      1.97    0.11    0.33
  1                    CONDUIT    866.21     0  02:55      3.20    0.30    0.38
  2                    CONDUIT    130.10     0  02:40      5.21    0.31    0.38
  3                    CONDUIT    597.65     0  00:00     10.05    0.95    0.86
  4                    CONDUIT      0.00     0  00:00      0.00    0.00    0.00
  CC-Pump-1            PUMP       200.00     0  03:00              1.00
  CC-Pump-2            PUMP       200.00     0  02:30              1.00
  JK-Pump-1            PUMP       300.00     0  00:00              1.00
  JK-Pump-2            PUMP       300.00     0  00:00              1.00
  XR-Pump-1            PUMP        95.00     0  00:30              1.00
  XR-Pump-2            PUMP        95.00     0  00:20              1.00
  XR-Pump-3            PUMP        95.00     0  00:30              1.00
  XR-Pump-4            PUMP        95.00     0  00:20              1.00
  
  
  ***************************
  Flow Classification Summary
  ***************************
  
  -------------------------------------------------------------------------------------
                      Adjusted    ---------- Fraction of Time in Flow Class ---------- 
                       /Actual         Up    Down  Sub   Sup   Up    Down  Norm  Inlet 
  Conduit               Length    Dry  Dry   Dry   Crit  Crit  Crit  Crit  Ltd   Ctrl  
  -------------------------------------------------------------------------------------
  WS02003066WSF200        1.00   0.06  0.01  0.00  0.00  0.92  0.00  0.00  0.64  0.00
  WS02006287WS02006284    1.00   0.04  0.02  0.00  0.66  0.29  0.00  0.00  0.77  0.00
  WS02006284WS02006280    1.00   0.04  0.00  0.00  0.00  0.00  0.00  0.96  0.00  0.00
  WS02006280WS02006229    1.00   0.04  0.00  0.00  0.00  0.00  0.00  0.96  0.00  0.00
  WS02006229WS02006228    1.00   0.00  0.00  0.00  0.98  0.00  0.00  0.02  0.00  0.00
  WS02006256WS02006235    1.00   0.00  0.00  0.00  1.00  0.00  0.00  0.00  0.00  0.00
  WS02006253WS02006251    1.00   0.03  0.01  0.00  0.96  0.00  0.00  0.00  0.00  0.00
  WS02006252WS02006251    1.00   0.08  0.00  0.00  0.00  0.00  0.91  0.00  0.00  0.00
  WS02006251WS02006249    1.00   0.00  0.00  0.00  1.00  0.00  0.00  0.00  0.29  0.00
  WS02006249WS02006248    1.00   0.00  0.02  0.00  0.87  0.00  0.11  0.00  0.00  0.00
  WS02006248WS02006247    1.00   0.02  0.00  0.00  0.97  0.00  0.00  0.01  0.21  0.00
  WS02006247WS02006245    1.00   0.02  0.00  0.00  0.96  0.00  0.00  0.02  0.00  0.00
  WS02006245WS02006243    1.00   0.02  0.00  0.00  0.93  0.00  0.00  0.05  0.02  0.00
  WS02006243WS02006242    1.00   0.01  0.01  0.00  0.98  0.00  0.00  0.00  0.27  0.00
  WS02006242WS02006240    1.00   0.01  0.00  0.00  0.99  0.00  0.00  0.00  0.00  0.00
  WS02006240WS02006239    1.00   0.00  0.00  0.00  0.95  0.00  0.00  0.05  0.02  0.00
  WS02006239WS02006238    1.00   0.00  0.00  0.00  1.00  0.00  0.00  0.00  0.00  0.00
  WS02006238WS02006235    1.00   0.00  0.00  0.00  1.00  0.00  0.00  0.00  0.00  0.00
  WS02006235WS02006234    1.00   0.00  0.00  0.00  0.95  0.00  0.05  0.00  0.00  0.00
  WS02006234WS02006232    1.00   0.00  0.00  0.00  1.00  0.00  0.00  0.00  0.17  0.00
  WS02006232WS02006231    1.00   0.00  0.00  0.00  0.99  0.00  0.01  0.00  0.00  0.00
  WS02006231WS02006230    1.00   0.00  0.00  0.00  0.47  0.00  0.53  0.00  0.00  0.00
  WS02006230WS02006229    1.00   0.00  0.00  0.00  0.98  0.00  0.00  0.02  0.01  0.00
  WS02006228WS02006109    1.00   0.00  0.00  0.00  1.00  0.00  0.00  0.00  0.00  0.00
  WS02006116WS02004401    1.00   0.02  0.00  0.00  0.98  0.00  0.00  0.00  0.00  0.00
  WS02006115WS02006116    1.00   0.02  0.00  0.00  0.97  0.00  0.00  0.01  0.01  0.00
  WS02006113WS02006111    1.00   0.02  0.00  0.00  0.00  0.98  0.00  0.00  0.13  0.00
  WS02006112WS02006115    1.00   0.02  0.00  0.00  0.98  0.00  0.00  0.00  0.00  0.00
  WS02006111WS02006112    1.00   0.02  0.00  0.00  0.98  0.00  0.00  0.00  0.98  0.00
  WS02006110WS02006113    1.00   0.02  0.00  0.00  0.98  0.00  0.00  0.00  0.00  0.00
  WS02006109WS02006110    1.00   0.00  0.02  0.00  0.98  0.00  0.00  0.00  0.00  0.00
  WS02004411WS02004412    1.00   0.05  0.00  0.00  0.95  0.00  0.00  0.00  0.00  0.00
  WS02004401WS02004402    1.00   0.02  0.00  0.00  0.98  0.00  0.00  0.00  0.00  0.00
  WS02004413WS02003067    1.00   0.06  0.01  0.00  0.00  0.00  0.93  0.00  0.00  0.00
  WS02004412WS02004413    1.00   0.05  0.00  0.00  0.95  0.00  0.00  0.00  0.03  0.00
  WS02004410WS02004411    1.00   0.05  0.00  0.00  0.95  0.00  0.00  0.00  0.01  0.00
  WS02004409WS02004410    1.00   0.05  0.00  0.00  0.95  0.00  0.00  0.00  0.00  0.00
  WS02004407WS02004409    1.00   0.05  0.00  0.00  0.94  0.00  0.00  0.00  0.79  0.00
  WS02004406WS02004407    1.00   0.00  0.05  0.00  0.95  0.00  0.00  0.00  0.00  0.00
  WS02004405WS02004406    1.00   0.00  0.00  0.00  1.00  0.00  0.00  0.00  0.02  0.00
  WS02004404WS02004405    1.00   0.00  0.00  0.00  1.00  0.00  0.00  0.00  0.00  0.00
  WS02004403WS02004404    1.00   0.00  0.02  0.00  0.98  0.00  0.00  0.00  0.02  0.00
  WS02004402WS02004403    1.00   0.02  0.00  0.00  0.98  0.00  0.00  0.00  0.00  0.00
  WS02004139WS02001211    1.00   0.00  0.01  0.00  0.99  0.00  0.00  0.00  0.00  0.00
  WS02004138WS02004139    1.00   0.02  0.00  0.00  0.98  0.00  0.00  0.00  0.98  0.00
  WS02003067WS02003066    1.00   0.07  0.00  0.00  0.93  0.00  0.00  0.00  0.00  0.00
  WS02001213WS02003059    1.00   0.00  0.01  0.00  0.99  0.00  0.00  0.00  0.00  0.00
  WS02001212WS02001213    1.00   0.02  0.00  0.00  0.83  0.00  0.14  0.00  0.00  0.00
  WS02001211WS02001212    1.00   0.00  0.02  0.00  0.98  0.00  0.00  0.00  0.00  0.00
  WS02003072WS02003073    1.00   0.00  0.00  0.00  0.00  0.00  0.00  1.00  0.00  0.00
  WS02003069WS02003072    1.00   0.00  0.00  0.00  0.99  0.01  0.00  0.00  0.27  0.00
  WS02003060WS02003069    1.00   0.00  0.00  0.00  0.98  0.02  0.00  0.00  0.19  0.00
  WS02003059WS02003060    1.00   0.00  0.00  0.00  0.99  0.01  0.00  0.00  0.04  0.00
  HS02004901HS02004770    1.00   0.04  0.00  0.00  0.96  0.00  0.00  0.00  0.02  0.00
  HS02004876HS02004881    1.00   0.02  0.00  0.00  0.98  0.00  0.00  0.00  0.00  0.00
  HS02004870HS02004876    1.00   0.01  0.00  0.00  0.99  0.00  0.00  0.00  0.95  0.00
  HS02004842HS02004848    1.00   0.00  0.04  0.00  0.96  0.00  0.00  0.00  0.68  0.00
  HS02004837HS02004842    1.00   0.00  0.00  0.00  0.99  0.01  0.00  0.00  0.11  0.00
  HS02004830HS02004837    1.00   0.00  0.00  0.00  1.00  0.00  0.00  0.00  0.99  0.00
  HS02004824HS02004830    1.00   0.00  0.00  0.00  1.00  0.00  0.00  0.00  0.00  0.00
  HS02004817HS02004824    1.00   0.00  0.00  0.00  1.00  0.00  0.00  0.00  1.00  0.00
  HS02004770HS02004777    1.00   0.00  0.04  0.00  0.96  0.00  0.00  0.00  0.07  0.00
  HS02004799HS02004480    1.00   0.00  0.02  0.00  0.95  0.00  0.03  0.00  0.00  0.00
  HS02004792HS02004799    1.00   0.00  0.00  0.00  0.98  0.02  0.00  0.00  0.98  0.00
  HS02004788HS02004792    1.00   0.00  0.00  0.00  0.98  0.02  0.00  0.00  0.98  0.00
  HS02004785HS02004788    1.00   0.00  0.00  0.00  1.00  0.00  0.00  0.00  0.00  0.00
  HS02004777HS02004785    1.00   0.00  0.00  0.00  1.00  0.00  0.00  0.00  0.20  0.00
  HS02004480HS02004478    1.00   0.04  0.00  0.00  0.70  0.00  0.00  0.25  0.00  0.00
  HS02004479HS02004480    1.00   0.02  0.00  0.00  0.98  0.00  0.00  0.00  0.16  0.00
  HS02004862HS02004870    1.00   0.00  0.00  0.00  1.00  0.00  0.00  0.00  0.06  0.00
  HS02004848HS02004852    1.00   0.04  0.00  0.00  0.96  0.00  0.00  0.00  0.71  0.00
  HS02004856HS02004862    1.00   0.00  0.07  0.00  0.93  0.00  0.00  0.00  0.74  0.00
  HS02004852HS02004856    1.00   0.04  0.01  0.00  0.95  0.00  0.00  0.00  0.83  0.00
  HS02004802HS02004478    1.00   0.04  0.01  0.00  0.95  0.00  0.00  0.00  0.01  0.00
  HS02004478WS02006287    1.00   0.05  0.00  0.00  0.86  0.09  0.00  0.00  0.77  0.00
  HS02004817HS02004807    1.00   0.00  0.04  0.00  0.96  0.00  0.00  0.00  0.00  0.00
  HS02004807HS02004802    1.00   0.04  0.00  0.00  0.96  0.00  0.00  0.00  0.01  0.00
  YS02001759YS02001757    1.00   0.00  0.00  0.00  1.00  0.00  0.00  0.00  0.17  0.00
  YS02001762YS02001759    1.00   0.00  0.00  0.00  1.00  0.00  0.00  0.00  0.04  0.00
  YS02001765YS02001762    1.00   0.00  0.00  0.00  1.00  0.00  0.00  0.00  0.22  0.00
  YS02001770YS02001767    1.00   0.00  0.00  0.00  1.00  0.00  0.00  0.00  0.00  0.00
  YS02001774YS02001770    1.00   0.00  0.05  0.00  0.95  0.00  0.00  0.00  0.07  0.00
  YS02001779YS02001774    1.00   0.00  0.00  0.00  1.00  0.00  0.00  0.00  0.26  0.00
  YS02001649YS02001757    1.00   0.00  0.00  0.00  1.00  0.00  0.00  0.00  0.19  0.00
  YS02001767YS02001765    1.00   0.00  0.00  0.00  1.00  0.00  0.00  0.00  0.01  0.00
  YS02006561YS02001783    1.00   0.07  0.00  0.00  0.00  0.93  0.00  0.00  0.73  0.00
  YS02001783YS02001784    1.00   0.00  0.07  0.00  0.93  0.00  0.00  0.00  0.00  0.00
  YS02001784YS02001785    1.00   0.00  0.00  0.00  1.00  0.00  0.00  0.00  0.25  0.00
  YS02001788YS02001790    1.00   0.00  0.00  0.00  0.07  0.93  0.00  0.00  0.75  0.00
  YS02001790YS02001791    1.00   0.00  0.00  0.00  0.02  0.98  0.00  0.00  0.56  0.00
  YS02001791YS02001793    1.00   0.00  0.00  0.00  0.00  1.00  0.00  0.00  0.00  0.00
  YS02001910YS02001907    1.00   0.00  0.00  0.00  0.98  0.00  0.00  0.02  0.13  0.00
  YS02001786YS02001788    1.00   0.00  0.00  0.00  0.07  0.93  0.00  0.00  0.00  0.00
  YS02001915YS02001910    1.00   0.00  0.00  0.00  1.00  0.00  0.00  0.00  0.24  0.00
  YS02001918YS02001915    1.00   0.00  0.01  0.00  0.99  0.00  0.00  0.00  0.82  0.00
  YS02001923YS02001920    1.00   0.00  0.00  0.00  1.00  0.00  0.00  0.00  1.00  0.00
  YS02001926YS02001923    1.00   0.00  0.03  0.00  0.00  0.00  0.97  0.00  0.00  0.00
  YS02001929YS02001926    1.00   0.00  0.04  0.00  0.96  0.00  0.00  0.00  0.87  0.00
  YS02001920YS02001918    1.00   0.00  0.01  0.00  0.99  0.00  0.00  0.00  0.00  0.00
  YS02001629YS02163301    1.00   0.06  0.00  0.00  0.94  0.00  0.00  0.00  0.00  0.00
  YS02001619YS02001622    1.00   0.04  0.00  0.00  0.96  0.00  0.00  0.00  0.00  0.00
  YS02001622YS02001625    1.00   0.04  0.00  0.00  0.96  0.00  0.00  0.00  0.13  0.00
  YS02001625YS02001629    1.00   0.04  0.03  0.00  0.91  0.00  0.02  0.00  0.00  0.00
  YS02163301YS02001633    1.00   0.00  0.06  0.00  0.94  0.00  0.00  0.00  0.00  0.00
  YS02163601YS02164001    1.00   0.00  0.03  0.00  0.97  0.00  0.00  0.00  0.00  0.00
  YS02164001YS02001641    1.00   0.01  0.02  0.00  0.97  0.00  0.00  0.00  0.07  0.00
  YS02001641YS02001644    1.00   0.00  0.01  0.00  0.99  0.00  0.00  0.00  0.00  0.00
  YS02001647YS02001649    1.00   0.00  0.06  0.00  0.93  0.00  0.00  0.00  0.01  0.00
  YS02006553YS02006556    1.00   0.02  0.00  0.00  0.98  0.00  0.00  0.00  0.03  0.00
  YS02006556YS02006558    1.00   0.00  0.01  0.00  0.99  0.00  0.00  0.00  0.00  0.00
  YSB6556YSB1171          1.00   0.02  0.02  0.00  0.96  0.00  0.00  0.00  0.00  0.00
  YS02001907YS02006553    1.00   0.00  0.02  0.00  0.98  0.00  0.00  0.00  0.00  0.00
  YS02006558YS02006561    1.00   0.07  0.00  0.00  0.00  0.93  0.00  0.00  0.69  0.00
  YS02001633YS02163601    1.00   0.00  0.01  0.00  0.99  0.00  0.00  0.00  0.20  0.00
  YS02001644YS02001647    1.00   0.00  0.07  0.00  0.93  0.00  0.00  0.00  0.00  0.00
  YS02001745YS02001748    1.00   0.00  0.00  0.00  0.86  0.02  0.00  0.12  0.64  0.00
  YS02001748YS02001751    1.00   0.00  0.00  0.00  0.97  0.03  0.00  0.00  0.24  0.00
  YS02001751YS02001754    1.00   0.00  0.00  0.00  0.93  0.00  0.00  0.07  0.02  0.00
  YS02001754YS02001757    1.00   0.00  0.00  0.00  0.99  0.01  0.00  0.00  0.26  0.00
  YS02001882YS02001884    1.00   0.05  0.00  0.00  0.94  0.00  0.00  0.00  0.00  0.00
  YS02001884YS02001887    1.00   0.03  0.01  0.00  0.96  0.00  0.00  0.00  0.00  0.00
  YS02001890YS02001895    1.00   0.00  0.06  0.00  0.94  0.00  0.00  0.00  0.00  0.00
  YS02001895YS02001898    1.00   0.06  0.00  0.00  0.93  0.00  0.01  0.00  0.00  0.00
  YS02001898YS02001901    1.00   0.06  0.00  0.00  0.94  0.00  0.00  0.00  0.02  0.00
  YS02001901YS02001904    1.00   0.06  0.00  0.00  0.94  0.00  0.00  0.00  0.00  0.00
  YS02001904YS02001907    1.00   0.00  0.05  0.00  0.94  0.00  0.00  0.00  0.00  0.00
  YS02001887YS02001890    1.00   0.00  0.00  0.00  0.98  0.00  0.02  0.00  0.00  0.00
  YS02001652YS02001649    1.00   0.00  0.00  0.00  1.00  0.00  0.00  0.00  0.26  0.00
  YS02001655YS02001652    1.00   0.00  0.00  0.00  0.93  0.00  0.00  0.07  0.02  0.00
  YS02001658YS02001655    1.00   0.00  0.05  0.00  0.92  0.03  0.00  0.00  0.11  0.00
  YS02001661YS02001658    1.00   0.05  0.00  0.00  0.86  0.09  0.00  0.00  0.53  0.00
  YS02001664YS02001661    1.00   0.04  0.00  0.00  0.71  0.25  0.00  0.00  0.86  0.00
  YSB1154YSB6556          1.00   0.04  0.00  0.00  0.96  0.00  0.00  0.00  0.02  0.00
  YSB1174YSB1171          1.00   0.03  0.01  0.00  0.97  0.00  0.00  0.00  0.00  0.00
  YSB1171HS02004479       1.00   0.02  0.00  0.00  0.97  0.00  0.00  0.00  0.13  0.00
  HS02004881HS02006253    1.00   0.03  0.00  0.00  0.76  0.01  0.00  0.20  0.54  0.00
  YS02001793JiankangQianchi    1.00   0.00  0.00  0.00  0.20  0.80  0.00  0.00  0.16  0.00
  YS02001757CaochengTiaoxuchi    1.00   0.00  0.08  0.00  0.92  0.00  0.00  0.00  0.00  0.00
  WSF200WS02003060        1.00   0.00  0.06  0.00  0.55  0.39  0.00  0.00  0.43  0.00
  1                       1.00   0.00  0.00  0.00  0.00  1.00  0.00  0.00  0.43  0.00
  2                       1.00   0.71  0.00  0.00  0.00  0.29  0.00  0.00  0.07  0.00
  3                       1.00   0.25  0.00  0.00  0.00  0.75  0.00  0.00  0.02  0.00
  4                       1.00   1.00  0.00  0.00  0.00  0.00  0.00  0.00  0.00  0.00
  
  
  *************************
  Conduit Surcharge Summary
  *************************
  
  ----------------------------------------------------------------------------
                                                           Hours        Hours 
                         --------- Hours Full --------   Above Full   Capacity
  Conduit                Both Ends  Upstream  Dnstream   Normal Flow   Limited
  ----------------------------------------------------------------------------
  WS02006229WS02006228        1.45      1.61      1.45      3.53         1.45
  WS02006256WS02006235        5.65      5.65      6.38      3.10         0.01
  WS02006252WS02006251        0.84      0.84      1.46      1.30         0.01
  WS02006251WS02006249        0.01      0.01      0.01      0.91         0.01
  WS02006249WS02006248        0.01      0.01      0.01      3.84         0.01
  WS02006247WS02006245        0.01      0.01      0.01      4.33         0.01
  WS02006243WS02006242        0.01      0.01      0.99      0.01         0.01
  WS02006242WS02006240        0.28      0.28      1.33      1.56         0.01
  WS02006240WS02006239        0.41      0.41      0.51      0.05         0.01
  WS02006239WS02006238        1.21      1.21      1.28      0.16         0.09
  WS02006238WS02006235        1.12      1.12      1.49      0.01         0.01
  WS02006235WS02006234        0.17      0.17      1.04      5.68         0.01
  WS02006234WS02006232        0.59      0.59      1.54      0.01         0.01
  WS02006232WS02006231        0.01      0.01      1.54      0.01         0.01
  WS02006231WS02006230        0.01      0.01      0.01      5.64         0.01
  WS02006230WS02006229        2.01      3.02      2.01      5.70         2.01
  WS02006228WS02006109        1.51      1.82      1.51      4.67         1.51
  WS02006112WS02006115        0.01      0.01      0.26      0.01         0.01
  WS02006111WS02006112        0.01      0.01      3.77      0.01         0.01
  WS02006110WS02006113        0.01      0.01      1.71      0.01         0.01
  WS02006109WS02006110        0.01      0.01      1.82      0.01         0.01
  WS02004405WS02004406        0.01      0.01      0.01      0.13         0.01
  WS02004404WS02004405        0.01      0.01      0.01      5.62         0.01
  WS02003072WS02003073        0.01      0.01      0.01      4.69         0.01
  YS02001759YS02001757        5.21      5.21      5.34      0.01         0.01
  YS02001762YS02001759        5.06      5.06      5.21      0.01         0.01
  YS02001765YS02001762        3.87      3.87      5.06      0.01         0.01
  YS02001770YS02001767        2.09      2.10      2.18      0.01         0.06
  YS02001774YS02001770        1.71      1.71      4.47      0.01         0.01
  YS02001779YS02001774        0.01      0.01      4.47      0.01         0.01
  YS02001649YS02001757        5.17      5.17      5.34      0.01         0.01
  YS02001767YS02001765        2.18      2.18      3.87      0.01         0.01
  YS02001629YS02163301        1.51      1.51      1.86      0.01         0.01
  YS02001622YS02001625        0.01      0.01      0.02      0.01         0.01
  YS02001625YS02001629        0.01      0.01      0.02      0.01         0.01
  YS02163301YS02001633        1.86      1.86      3.89      0.01         0.01
  YS02163601YS02164001        3.64      3.64      5.15      0.01         0.01
  YS02164001YS02001641        3.64      3.64      4.20      0.01         0.01
  YS02001641YS02001644        4.19      4.20      4.31      0.01         0.28
  YS02001647YS02001649        0.05      0.05      5.17      0.01         0.01
  YS02001633YS02163601        2.91      2.91      5.15      0.01         0.01
  YS02001644YS02001647        0.05      0.05      4.31      0.01         0.01
  YS02001754YS02001757        0.01      0.01      5.34      0.01         0.01
  YS02001652YS02001649        0.19      0.19      5.17      0.01         0.01
  YS02001793JiankangQianchi        0.01      0.01      0.43      0.01         0.01
  YS02001757CaochengTiaoxuchi        0.01      0.01      5.34      0.01         0.01
  3                           0.01      0.01      0.01      0.01         0.01
  
  
  ***************
  Pumping Summary
  ***************
  
  ---------------------------------------------------------------------------------------------------------
                                                  Min       Avg       Max     Total     Power    % Time Off
                        Percent   Number of      Flow      Flow      Flow    Volume     Usage    Pump Curve
  Pump                 Utilized   Start-Ups       LPS       LPS       LPS  10^6 ltr     Kw-hr    Low   High
  ---------------------------------------------------------------------------------------------------------
  CC-Pump-1               43.19           6      0.00    141.52    200.00     1.687      6.23    0.0   43.8
  CC-Pump-2               61.69           3      0.00    142.32    200.00     2.400      8.39    0.0   29.6
  JK-Pump-1               61.70           8      0.00    136.22    300.00     2.002     36.85    0.0    0.0
  JK-Pump-2               89.36           5      0.00    132.47    300.00     2.316     43.47    0.0    0.0
  XR-Pump-1               70.20           7      0.00     64.81     95.00     1.282      8.55    0.0    0.0
  XR-Pump-2               76.58           7      0.00     61.52     95.00     1.368      8.85    0.0    0.0
  XR-Pump-3               78.71           7      0.00     63.97     95.00     1.396      8.33    0.0    0.0
  XR-Pump-4               72.33           8      0.00     64.74     95.00     1.339      8.17    0.0    0.0
  

  Analysis begun on:  Tue Dec 21 11:55:16 2021
  Analysis ended on:  Tue Dec 21 11:55:19 2021
  Total elapsed time: 00:00:03