
  EPA STORM WATER MANAGEMENT MODEL - VERSION 5.1 (Build 5.3.0.dev0)
  --------------------------------------------------------------

  WARNING 04: minimum elevation drop used for Conduit WS02004404WS02004405
  WARNING 03: negative offset ignored for Link YS02001904YS02001907
  
  *********************************************************
  NOTE: The summary statistics displayed in this report are
  based on results found at every computational time step,  
  not just on results from each reporting time step.
  *********************************************************
  
  ****************
  Analysis Options
  ****************
  Flow Units ............... LPS
  Process Models:
    Rainfall/Runoff ........ YES
    RDII ................... NO
    Snowmelt ............... NO
    Groundwater ............ NO
    Flow Routing ........... YES
    Ponding Allowed ........ NO
    Water Quality .......... NO
  Infiltration Method ...... HORTON
  Flow Routing Method ...... DYNWAVE
  Surcharge Method ......... EXTRAN
  Starting Date ............ 08/28/2015 08:00:00
  Ending Date .............. 08/28/2015 15:50:00
  Antecedent Dry Days ...... 8.0
  Report Time Step ......... 00:01:00
  Wet Time Step ............ 00:01:00
  Dry Time Step ............ 00:01:00
  Routing Time Step ........ 5.00 sec
  Variable Time Step ....... YES
  Maximum Trials ........... 8
  Number of Threads ........ 4
  Head Tolerance ........... 0.001500 m
  
  
  **************************        Volume         Depth
  Runoff Quantity Continuity     hectare-m            mm
  **************************     ---------       -------
  Total Precipitation ......         2.740         6.000
  Evaporation Loss .........         0.000         0.000
  Infiltration Loss ........         0.689         1.508
  Surface Runoff ...........         1.164         2.549
  Final Storage ............         0.888         1.944
  Continuity Error (%) .....        -0.018
  
  
  **************************        Volume        Volume
  Flow Routing Continuity        hectare-m      10^6 ltr
  **************************     ---------     ---------
  Dry Weather Inflow .......         0.616         6.165
  Wet Weather Inflow .......         1.164        11.637
  Groundwater Inflow .......         0.000         0.000
  RDII Inflow ..............         0.000         0.000
  External Inflow ..........         0.102         1.024
  External Outflow .........         1.662        16.616
  Flooding Loss ............         0.085         0.851
  Evaporation Loss .........         0.000         0.000
  Exfiltration Loss ........         0.000         0.000
  Initial Stored Volume ....         0.076         0.761
  Final Stored Volume ......         0.347         3.469
  Continuity Error (%) .....        -6.893
  
  
  *************************
  Highest Continuity Errors
  *************************
  Node JK-storage (-37.44%)
  Node HS02004842 (28.08%)
  Node YS02001884 (22.50%)
  Node YS02001774 (15.05%)
  Node YSB1171 (6.85%)
  
  
  ***************************
  Time-Step Critical Elements
  ***************************
  Link WS02006252WS02006251 (48.27%)
  Link 3 (38.25%)
  Link WS02006238WS02006235 (6.23%)
  Link WS02006280WS02006229 (1.84%)
  Link 2 (1.36%)
  
  
  ********************************
  Highest Flow Instability Indexes
  ********************************
  Link WS02006113WS02006111 (41)
  Link WS02006111WS02006112 (21)
  Link YS02006558YS02006561 (15)
  Link WS02006110WS02006113 (3)
  Link YS02163301YS02001633 (2)
  
  
  *************************
  Routing Time Step Summary
  *************************
  Minimum Time Step           :     0.16 sec
  Average Time Step           :     0.89 sec
  Maximum Time Step           :     5.00 sec
  Percent in Steady State     :    -0.00
  Average Iterations per Step :     2.06
  Percent Not Converging      :     0.65
  
  
  ***************************
  Subcatchment Runoff Summary
  ***************************
  
  ------------------------------------------------------------------------------------------------------------------------------
                            Total      Total      Total      Total     Imperv       Perv      Total       Total     Peak  Runoff
                           Precip      Runon       Evap      Infil     Runoff     Runoff     Runoff      Runoff   Runoff   Coeff
  Subcatchment                 mm         mm         mm         mm         mm         mm         mm    10^6 ltr      LPS
  ------------------------------------------------------------------------------------------------------------------------------
  sub0                       6.00       0.00       0.00       0.42       4.32       0.00       4.32        0.00     1.44   0.719
  sub1                       6.00       0.00       0.00       0.66       4.08       0.00       4.08        0.03     7.61   0.681
  sub2                       6.00       0.00       0.00       2.22       2.87       0.00       2.87        0.03     6.74   0.479
  sub3                       6.00       0.00       0.00       2.22       2.84       0.00       2.84        0.06    13.89   0.473
  sub4                       6.00       0.00       0.00       0.66       3.95       0.00       3.95        0.08    15.61   0.658
  sub5                       6.00       0.00       0.00       0.42       4.27       0.00       4.27        0.05    13.53   0.711
  sub7                       6.00       0.00       0.00       0.54       4.21       0.00       4.21        0.01     4.76   0.701
  sub8                       6.00       0.00       0.00       0.54       4.20       0.00       4.20        0.03     8.41   0.699
  sub9                       6.00       0.00       0.00       0.54       4.19       0.00       4.19        0.02     6.23   0.699
  sub10                      6.00       0.00       0.00       0.48       4.23       0.00       4.23        0.05    13.51   0.705
  sub11                      6.00       0.00       0.00       0.48       4.25       0.00       4.25        0.05    15.82   0.708
  sub12                      6.00       0.00       0.00       0.78       4.03       0.00       4.03        0.04    13.37   0.672
  sub14                      6.00       0.00       0.00       0.54       4.19       0.00       4.19        0.04    12.19   0.699
  sub15                      6.00       0.00       0.00       1.80       3.22       0.00       3.22        0.06    16.54   0.537
  sub16                      6.00       0.00       0.00       1.98       3.10       0.00       3.10        0.03    11.75   0.517
  sub17                      6.00       0.00       0.00       1.92       3.15       0.00       3.15        0.03     9.50   0.524
  sub22                      6.00       0.00       0.00       2.58       2.63       0.00       2.63        0.17    54.10   0.439
  sub23                      6.00       0.00       0.00       2.22       2.91       0.00       2.91        0.14    46.08   0.485
  sub60                      6.00       0.00       0.00       0.72       2.84       0.00       2.84        0.86    79.76   0.473
  sub61                      6.00       0.00       0.00       1.02       3.04       0.00       3.04        0.94   100.03   0.506
  sub62                      6.00       0.00       0.00       0.48       3.26       0.00       3.26        1.00   102.24   0.543
  sub63                      6.00       0.00       0.00       1.74       2.70       0.00       2.70        0.82    93.34   0.451
  sub64                      6.00       0.00       0.00       0.90       2.71       0.00       2.71        0.83    75.76   0.452
  sub65                      6.00       0.00       0.00       0.78       2.75       0.00       2.75        0.85    76.87   0.458
  sub66                      6.00       0.00       0.00       1.74       2.37       0.00       2.37        0.73    69.43   0.395
  sub67                      6.00       0.00       0.00       0.48       3.58       0.00       3.58        1.10   131.19   0.596
  sub68                      6.00       0.00       0.00       0.84       3.23       0.00       3.23        0.99   110.58   0.538
  sub69                      6.00       0.00       0.00       0.90       3.48       0.00       3.48        0.81   109.76   0.581
  sub70                      6.00       3.56       0.00       3.25       4.28       0.00       4.28        0.98    88.75   0.448
  sub71                      6.00       0.00       0.00       0.48       3.11       0.00       3.11        0.74    71.37   0.519
  sub72                      6.00       0.00       0.00       0.42       2.20       0.00       2.20        0.45    33.68   0.367
  sub73                      6.00       4.17       0.00       3.46       4.36       0.00       4.36        1.03    76.27   0.429
  sub74                      6.00       0.00       0.00       4.50       1.05       0.00       1.05        0.42    61.21   0.175
  
  
  ******************
  Node Depth Summary
  ******************
  
  ---------------------------------------------------------------------------------
                                 Average  Maximum  Maximum  Time of Max    Reported
                                   Depth    Depth      HGL   Occurrence   Max Depth
  Node                 Type       Meters   Meters   Meters  days hr:min      Meters
  ---------------------------------------------------------------------------------
  WS02001211           JUNCTION     0.63     0.77     5.60     0  04:30        0.77
  WS02001212           JUNCTION     0.36     0.47     5.54     0  04:31        0.47
  WS02001213           JUNCTION     0.60     0.71     5.47     0  04:31        0.71
  WS02003069           JUNCTION     0.43     0.54     5.13     0  02:42        0.54
  WS02003072           JUNCTION     0.49     0.61     4.98     0  02:42        0.61
  WS02003073           JUNCTION     0.29     0.37     4.44     0  02:43        0.37
  WS02003060           JUNCTION     0.38     0.48     5.41     0  02:41        0.48
  WS02003066           JUNCTION     0.23     0.30     5.85     0  02:38        0.30
  WS02003059           JUNCTION     0.66     0.76     5.45     0  02:42        0.76
  WS02003067           JUNCTION     0.57     0.70     6.02     0  02:38        0.70
  WS02004401           JUNCTION     0.67     0.85     6.85     0  02:34        0.85
  WS02004402           JUNCTION     0.70     0.88     6.84     0  02:34        0.88
  WS02004403           JUNCTION     0.72     0.89     6.82     0  02:34        0.89
  WS02004404           JUNCTION     0.80     0.96     6.81     0  02:34        0.96
  WS02004406           JUNCTION     0.81     0.96     6.79     0  02:34        0.96
  WS02004409           JUNCTION     0.49     0.66     6.43     0  02:37        0.66
  WS02004410           JUNCTION     0.51     0.68     6.40     0  02:37        0.68
  WS02004411           JUNCTION     0.53     0.69     6.37     0  02:37        0.69
  WS02004412           JUNCTION     0.54     0.70     6.34     0  02:38        0.70
  WS02004413           JUNCTION     0.70     0.86     6.33     0  02:38        0.86
  WS02004405           JUNCTION     0.80     0.96     6.81     0  02:35        0.96
  WS02006109           JUNCTION     0.75     0.97     7.59     0  02:29        0.97
  WS02006110           JUNCTION     0.75     0.92     7.51     0  02:30        0.92
  WS02006111           JUNCTION     0.22     0.29     6.99     0  02:30        0.29
  WS02006112           JUNCTION     0.84     1.05     6.93     0  02:34        1.05
  WS02006113           JUNCTION     0.34     0.45     7.35     0  02:30        0.45
  WS02006115           JUNCTION     0.56     0.75     6.89     0  02:34        0.75
  WS02006116           JUNCTION     0.65     0.83     6.87     0  02:34        0.83
  WS02006230           JUNCTION     0.73     1.02     7.76     0  02:29        1.02
  WS02006231           JUNCTION     0.48     0.69     7.82     0  02:29        0.69
  WS02006232           JUNCTION     0.62     0.82     7.86     0  02:30        0.82
  WS02006234           JUNCTION     0.54     0.76     7.92     0  02:31        0.76
  WS02006235           JUNCTION     0.58     0.79     7.96     0  02:31        0.79
  WS02006238           JUNCTION     0.60     0.82     7.97     0  02:31        0.82
  WS02006240           JUNCTION     0.50     0.75     8.04     0  02:31        0.74
  WS02006242           JUNCTION     0.56     0.81     8.08     0  02:31        0.81
  WS02006243           JUNCTION     0.44     0.71     8.13     0  02:31        0.70
  WS02006245           JUNCTION     0.42     0.67     8.16     0  02:31        0.67
  WS02006247           JUNCTION     0.44     0.68     8.18     0  02:31        0.68
  WS02006248           JUNCTION     0.38     0.62     8.20     0  02:31        0.62
  WS02006249           JUNCTION     0.41     0.63     8.22     0  02:31        0.63
  WS02006239           JUNCTION     0.56     0.79     8.00     0  02:31        0.79
  WS02006251           JUNCTION     0.41     0.66     8.33     0  02:30        0.66
  WS02006252           JUNCTION     0.37     0.58     8.83     0  04:00        0.58
  WS02006253           JUNCTION     0.43     0.68     8.33     0  02:30        0.68
  WS02006256           JUNCTION     1.04     2.35     9.28     0  00:00        1.21
  WS02004138           JUNCTION     0.14     0.19     7.44     0  04:30        0.19
  WS02004407           JUNCTION     0.22     0.30     6.61     0  02:35        0.30
  WS02006228           JUNCTION     0.75     1.01     7.66     0  02:29        1.01
  WS02006229           JUNCTION     0.73     1.01     7.70     0  02:29        1.01
  WS02006280           JUNCTION     0.06     0.15     8.42     0  02:18        0.15
  WS02006284           JUNCTION     0.35     0.48     8.88     0  02:18        0.48
  WS02006287           JUNCTION     0.08     0.21     9.17     0  02:17        0.21
  WSF200               JUNCTION     0.22     0.31     5.54     0  02:37        0.31
  HS02004901           JUNCTION     0.11     0.23    10.05     0  02:15        0.23
  HS02004881           JUNCTION     0.01     0.02     9.05     0  02:17        0.02
  HS02004876           JUNCTION     0.04     0.10     9.13     0  02:16        0.10
  HS02004870           JUNCTION     0.01     0.04     9.33     0  02:18        0.04
  HS02004862           JUNCTION     0.01     0.05     9.43     0  02:19        0.05
  HS02004856           JUNCTION     0.07     0.10     9.53     0  02:18        0.10
  HS02004852           JUNCTION     0.01     0.03     9.54     0  02:19        0.03
  HS02004848           JUNCTION     0.01     0.03     9.63     0  02:18        0.03
  HS02004842           JUNCTION     0.33     0.36     9.63     0  02:17        0.36
  HS02004837           JUNCTION     0.03     0.05     9.63     0  02:17        0.05
  HS02004830           JUNCTION     0.04     0.06     9.53     0  02:18        0.06
  HS02004824           JUNCTION     0.02     0.04     9.44     0  02:21        0.04
  HS02004817           JUNCTION     0.43     0.53     9.37     0  02:18        0.53
  HS02004807           JUNCTION     0.11     0.20     9.37     0  02:18        0.20
  HS02004802           JUNCTION     0.15     0.24     9.37     0  02:18        0.24
  HS02004799           JUNCTION     0.10     0.26     9.47     0  02:16        0.26
  HS02004792           JUNCTION     0.02     0.10     9.62     0  02:15        0.10
  HS02004788           JUNCTION     0.02     0.07     9.97     0  02:16        0.07
  HS02004785           JUNCTION     0.04     0.14    10.04     0  02:16        0.14
  HS02004777           JUNCTION     0.13     0.25    10.05     0  02:15        0.25
  HS02004770           JUNCTION     0.10     0.22    10.05     0  02:15        0.22
  HS02004480           JUNCTION     0.07     0.20     9.44     0  02:16        0.20
  HS02004479           JUNCTION     0.10     0.24     9.44     0  02:16        0.24
  HS02004478           JUNCTION     0.05     0.13     9.36     0  02:17        0.13
  YS02001745           JUNCTION     0.08     0.12     7.64     0  03:01        0.12
  YS02001748           JUNCTION     0.35     0.53     7.61     0  05:41        0.53
  YS02001751           JUNCTION     0.53     0.73     7.60     0  05:40        0.72
  YS02001754           JUNCTION     0.79     1.00     7.61     0  05:40        1.00
  YS02001762           JUNCTION     0.98     1.21     7.61     0  05:37        1.20
  YS02001765           JUNCTION     0.94     1.17     7.62     0  05:37        1.15
  YS02001767           JUNCTION     0.90     1.13     7.62     0  05:38        1.11
  YS02001770           JUNCTION     0.89     1.12     7.62     0  05:38        1.12
  YS02001774           JUNCTION     0.96     1.20     7.62     0  05:38        1.20
  YS02001779           JUNCTION     0.71     0.93     7.62     0  05:37        0.93
  YS02001882           JUNCTION     0.29     0.47     7.18     0  02:50        0.47
  YS02001884           JUNCTION     0.39     0.57     7.18     0  02:50        0.57
  YS02001759           JUNCTION     1.02     1.25     7.61     0  05:38        1.23
  YS02001887           JUNCTION     0.46     0.64     7.18     0  02:50        0.64
  YS02001890           JUNCTION     0.49     0.67     7.18     0  02:50        0.67
  YS02001898           JUNCTION     0.26     0.43     7.16     0  02:57        0.43
  YS02001901           JUNCTION     0.38     0.56     7.16     0  02:56        0.56
  YS02001904           JUNCTION     0.36     0.53     7.16     0  02:56        0.53
  YS02001907           JUNCTION     0.69     0.87     7.16     0  02:56        0.87
  YS02001910           JUNCTION     0.48     0.66     7.16     0  02:55        0.66
  YS02001915           JUNCTION     0.28     0.44     7.16     0  02:55        0.44
  YS02001918           JUNCTION     0.08     0.10     7.16     0  03:03        0.10
  YS02001619           JUNCTION     0.50     0.69     7.62     0  05:39        0.69
  YS02001629           JUNCTION     0.85     1.06     7.61     0  05:42        1.06
  YS02001641           JUNCTION     0.95     1.20     7.64     0  05:35        1.18
  YS02001644           JUNCTION     0.96     1.20     7.63     0  05:35        1.19
  YS02001652           JUNCTION     0.80     1.02     7.62     0  05:38        1.02
  YS02001655           JUNCTION     0.56     0.77     7.62     0  05:38        0.77
  YS02001920           JUNCTION     0.18     0.21     7.22     0  03:02        0.21
  YS02001923           JUNCTION     0.07     0.09     7.35     0  03:02        0.09
  YS02001926           JUNCTION     0.14     0.18     7.62     0  03:01        0.18
  YS02001929           JUNCTION     0.07     0.09     7.78     0  03:01        0.09
  YS02001658           JUNCTION     0.30     0.47     7.61     0  05:40        0.47
  YS02001661           JUNCTION     0.15     0.22     7.63     0  05:39        0.22
  YS02001664           JUNCTION     0.07     0.12     8.04     0  02:45        0.12
  YS02001622           JUNCTION     0.52     0.70     7.61     0  05:41        0.70
  YS02001633           JUNCTION     0.94     1.18     7.64     0  05:35        1.16
  YS02001649           JUNCTION     0.99     1.22     7.61     0  05:38        1.22
  YS02001757           JUNCTION     1.12     1.35     7.61     0  05:38        1.34
  YS02001895           JUNCTION     0.26     0.43     7.17     0  02:57        0.43
  YS02001625           JUNCTION     0.80     1.01     7.61     0  05:39        1.01
  YS02163301           JUNCTION     0.88     1.11     7.63     0  05:35        1.10
  YS02163601           JUNCTION     0.99     1.25     7.64     0  05:35        1.22
  YS02164001           JUNCTION     0.93     1.19     7.64     0  05:35        1.16
  YS02001647           JUNCTION     0.79     1.02     7.63     0  05:38        1.02
  YSB1154              JUNCTION     0.24     0.39     9.44     0  02:16        0.39
  YSB6556              JUNCTION     0.14     0.28     9.44     0  02:16        0.27
  YSB1174              JUNCTION     0.19     0.34     9.44     0  02:16        0.33
  YSB1171              JUNCTION     0.39     0.54     9.44     0  02:16        0.54
  YS02006553           JUNCTION     0.69     0.88     7.16     0  02:56        0.88
  YS02006561           JUNCTION     0.14     0.23     6.89     0  02:53        0.23
  YS02006556           JUNCTION     0.67     0.85     7.16     0  02:55        0.85
  YS02006558           JUNCTION     0.71     0.89     7.16     0  02:56        0.89
  YS02001783           JUNCTION     0.25     0.41     6.56     0  02:52        0.41
  YS02001784           JUNCTION     0.28     0.44     6.51     0  02:53        0.44
  YS02001786           JUNCTION     0.24     0.37     6.40     0  02:53        0.37
  YS02001788           JUNCTION     0.17     0.28     6.26     0  02:54        0.28
  YS02001790           JUNCTION     0.21     0.34     5.99     0  02:54        0.34
  YS02001791           JUNCTION     0.14     0.22     5.69     0  03:01        0.22
  YS02001793           JUNCTION     0.09     0.15     4.98     0  02:54        0.15
  WS02004139           JUNCTION     0.57     0.71     5.62     0  04:30        0.71
  WSC                  OUTFALL      0.29     0.37     1.04     0  02:43        0.37
  3                    OUTFALL      0.08     0.23     6.23     0  00:00        0.20
  4                    OUTFALL      0.02     0.13     7.13     0  02:31        0.13
  5                    OUTFALL      0.00     0.00     5.00     0  00:00        0.00
  JK-storage           STORAGE      0.16     3.08     3.88     0  04:13        3.08
  CC-storage           STORAGE      0.34     0.59     7.59     0  05:39        0.59
  XR-storage           STORAGE      7.39     7.72     5.72     0  02:58        7.72
  
  
  *******************
  Node Inflow Summary
  *******************
  
  -------------------------------------------------------------------------------------------------
                                  Maximum  Maximum                  Lateral       Total        Flow
                                  Lateral    Total  Time of Max      Inflow      Inflow     Balance
                                   Inflow   Inflow   Occurrence      Volume      Volume       Error
  Node                 Type           LPS      LPS  days hr:min    10^6 ltr    10^6 ltr     Percent
  -------------------------------------------------------------------------------------------------
  WS02001211           JUNCTION      7.35   381.61     0  04:30       0.207        6.16       0.632
  WS02001212           JUNCTION      0.00   378.13     0  04:31           0        6.12       0.310
  WS02001213           JUNCTION      0.00   377.59     0  04:31           0         6.1       0.415
  WS02003069           JUNCTION      0.32   836.62     0  02:41     0.00902        13.5       0.240
  WS02003072           JUNCTION      0.00   836.58     0  02:42           0        13.5       0.288
  WS02003073           JUNCTION      1.82   838.41     0  02:42      0.0514        13.5       0.326
  WS02003060           JUNCTION     16.53   836.31     0  02:41       0.466        13.5       0.230
  WS02003066           JUNCTION      0.00   533.12     0  02:38           0        7.02       0.070
  WS02003059           JUNCTION      0.00   378.43     0  04:31           0        6.08       0.688
  WS02003067           JUNCTION      0.00   533.08     0  02:38           0        7.03       0.144
  WS02004401           JUNCTION      0.00   537.04     0  02:33           0        7.29       0.328
  WS02004402           JUNCTION      0.00   536.62     0  02:34           0        7.27       0.306
  WS02004403           JUNCTION      0.00   536.35     0  02:34           0        7.25       0.275
  WS02004404           JUNCTION      0.16   536.42     0  02:34     0.00457        7.23       0.203
  WS02004406           JUNCTION      0.00   536.39     0  02:34           0        7.19       0.496
  WS02004409           JUNCTION      0.00   536.31     0  02:35           0        7.15       0.265
  WS02004410           JUNCTION      0.00   534.57     0  02:36           0        7.13       0.294
  WS02004411           JUNCTION      0.00   533.61     0  02:37           0        7.11       0.298
  WS02004412           JUNCTION      0.00   533.27     0  02:37           0        7.09       0.317
  WS02004413           JUNCTION      0.00   533.14     0  02:38           0        7.07       0.461
  WS02004405           JUNCTION      0.04   536.44     0  02:34     0.00107        7.22       0.307
  WS02006109           JUNCTION      1.23   537.71     0  02:30      0.0347         7.4       0.311
  WS02006110           JUNCTION      0.00   537.73     0  02:30           0        7.38       0.292
  WS02006111           JUNCTION      0.00   559.16     0  02:30           0        7.35       0.067
  WS02006112           JUNCTION      9.50   546.98     0  02:30       0.027        7.37       0.411
  WS02006113           JUNCTION      0.00   538.08     0  02:30           0        7.36       0.161
  WS02006115           JUNCTION      0.00   543.27     0  02:30           0        7.34       0.323
  WS02006116           JUNCTION      0.00   538.10     0  02:32           0        7.31       0.307
  WS02006230           JUNCTION     10.28   394.24     0  05:57        0.29        6.49       0.240
  WS02006231           JUNCTION      0.00   384.55     0  05:57           0        6.21       0.221
  WS02006232           JUNCTION      0.00   384.58     0  05:57           0        6.23       0.284
  WS02006234           JUNCTION      0.00   385.23     0  05:57           0        6.24       0.161
  WS02006235           JUNCTION      0.00   385.37     0  05:57           0        6.28       0.197
  WS02006238           JUNCTION      0.00   336.76     0  04:10           0        4.35       0.181
  WS02006240           JUNCTION      0.00   337.23     0  04:06           0        4.35       0.360
  WS02006242           JUNCTION      0.00   340.22     0  04:02           0        4.36       0.433
  WS02006243           JUNCTION      0.00   345.28     0  04:02           0        4.35      -0.126
  WS02006245           JUNCTION      0.00   348.58     0  04:01           0        4.36       0.345
  WS02006247           JUNCTION      0.00   352.21     0  04:01           0        4.37       0.241
  WS02006248           JUNCTION      0.00   356.32     0  04:01           0        4.38       0.154
  WS02006249           JUNCTION      0.00   435.90     0  02:30           0        4.77       0.335
  WS02006239           JUNCTION      0.00   336.88     0  04:09           0        4.35       0.299
  WS02006251           JUNCTION      0.08   435.66     0  02:30     0.00217        4.82       0.292
  WS02006252           JUNCTION      0.00   400.00     0  02:30           0        4.64       0.011
  WS02006253           JUNCTION      1.44    42.32     0  02:17     0.00349        0.19       4.486
  WS02006256           JUNCTION      0.00   600.00     0  00:00           0        4.77       0.048
  WS02004138           JUNCTION      0.00   379.95     0  04:30           0        5.98       0.059
  WS02004407           JUNCTION      0.00   536.35     0  02:35           0        7.16       0.121
  WS02006228           JUNCTION      0.00   536.48     0  02:30           0        7.38       0.221
  WS02006229           JUNCTION      0.00   536.10     0  02:30           0         7.4       0.171
  WS02006280           JUNCTION      0.00   216.64     0  02:18           0       0.924       0.008
  WS02006284           JUNCTION      0.10   216.63     0  02:17      0.0027       0.925       0.116
  WS02006287           JUNCTION      0.00   216.51     0  02:17           0       0.923       0.079
  WSF200               JUNCTION      0.00   533.14     0  02:38           0        7.02       0.069
  HS02004901           JUNCTION     11.75    11.75     0  02:10      0.0324      0.0326       5.696
  HS02004881           JUNCTION      4.76    41.21     0  02:17      0.0142       0.149       0.212
  HS02004876           JUNCTION      7.61    36.76     0  02:17      0.0271       0.135       0.391
  HS02004870           JUNCTION      8.41    29.30     0  02:17      0.0268       0.108       0.099
  HS02004862           JUNCTION      6.94    21.43     0  02:18      0.0324      0.0817       0.207
  HS02004856           JUNCTION      6.23    14.54     0  02:17      0.0202      0.0507       2.917
  HS02004852           JUNCTION      0.00     8.69     0  02:18           0      0.0306       0.166
  HS02004848           JUNCTION     13.89    13.89     0  02:20      0.0639      0.0639       0.069
  HS02004842           JUNCTION      0.00     5.68     0  02:30           0      0.0463      39.052
  HS02004837           JUNCTION     19.86    24.67     0  02:17       0.226       0.259       0.315
  HS02004830           JUNCTION      0.15    24.80     0  02:17     0.00423       0.249       0.497
  HS02004824           JUNCTION     15.66    40.27     0  02:21      0.0837       0.332       0.162
  HS02004817           JUNCTION      0.60    40.87     0  02:21      0.0169       0.348       5.027
  HS02004807           JUNCTION     15.82    55.30     0  02:19      0.0493       0.381       1.122
  HS02004802           JUNCTION      0.00    55.62     0  02:20           0       0.377       1.091
  HS02004799           JUNCTION     12.19   137.49     0  02:15      0.0399       0.481       0.475
  HS02004792           JUNCTION     54.38   125.54     0  02:15       0.174       0.442       0.093
  HS02004788           JUNCTION     18.21    73.10     0  02:15       0.102       0.269       0.144
  HS02004785           JUNCTION      0.15    55.23     0  02:15     0.00423       0.168       0.287
  HS02004777           JUNCTION      0.03    55.53     0  02:13    0.000846       0.169       3.165
  HS02004770           JUNCTION     46.08    56.60     0  02:12       0.139        0.17       1.860
  HS02004480           JUNCTION      0.00   162.16     0  02:16           0       0.562       0.130
  HS02004479           JUNCTION      0.00    25.16     0  02:17           0      0.0929       0.791
  HS02004478           JUNCTION      0.00   216.50     0  02:17           0       0.923       0.066
  YS02001745           JUNCTION     79.77    79.77     0  03:01       0.861       0.861       0.099
  YS02001748           JUNCTION      0.04    79.81     0  03:01     0.00127       0.864       0.296
  YS02001751           JUNCTION      0.01   120.06     0  03:19     0.00031       0.862       1.204
  YS02001754           JUNCTION      0.26    92.03     0  02:57     0.00733       0.856       2.070
  YS02001762           JUNCTION      0.00   120.35     0  02:40           0       0.948       2.118
  YS02001765           JUNCTION      0.00   117.24     0  02:36           0       0.948       2.358
  YS02001767           JUNCTION      0.54   128.14     0  03:00      0.0151       0.965       3.313
  YS02001770           JUNCTION    102.39   131.60     0  03:01           1        1.07       2.572
  YS02001774           JUNCTION      0.00    53.33     0  03:48           0       0.152      17.719
  YS02001779           JUNCTION      0.01    50.19     0  03:48    0.000141      0.0666      19.082
  YS02001882           JUNCTION      0.00     4.17     0  02:09           0     0.00545      45.028
  YS02001884           JUNCTION      0.00    11.59     0  02:06           0      0.0218      29.040
  YS02001759           JUNCTION    100.07   214.22     0  02:58       0.937        1.85       1.189
  YS02001887           JUNCTION    131.64   131.64     0  02:42        1.12        1.13       0.643
  YS02001890           JUNCTION      0.00   131.42     0  02:46           0         1.1       0.720
  YS02001898           JUNCTION      0.00   130.95     0  02:47           0        1.09       0.204
  YS02001901           JUNCTION      0.00   130.97     0  02:46           0        1.09       0.512
  YS02001904           JUNCTION      0.00   131.28     0  02:51           0        1.09       0.476
  YS02001907           JUNCTION      0.00   237.85     0  02:55           0        2.34       0.956
  YS02001910           JUNCTION      0.00   108.70     0  02:56           0        1.26       0.818
  YS02001915           JUNCTION     71.39   107.58     0  03:01       0.736        1.26       0.366
  YS02001918           JUNCTION      0.00    36.54     0  03:02           0       0.527       0.220
  YS02001619           JUNCTION     69.43    69.43     0  02:58       0.726       0.726       0.602
  YS02001629           JUNCTION      0.00    91.22     0  03:11           0       0.685       2.194
  YS02001641           JUNCTION      0.00   151.14     0  02:46           0        1.46       1.308
  YS02001644           JUNCTION     75.80   227.25     0  03:00       0.826        2.26       1.053
  YS02001652           JUNCTION      0.00   120.26     0  02:42           0       0.808       2.136
  YS02001655           JUNCTION      0.15   128.03     0  03:18     0.00434       0.827       1.412
  YS02001920           JUNCTION      2.87    36.56     0  03:02      0.0809       0.529       0.392
  YS02001923           JUNCTION      0.04    33.69     0  03:01     0.00106       0.448       0.069
  YS02001926           JUNCTION      0.05    33.72     0  03:01     0.00147       0.449       0.491
  YS02001929           JUNCTION     33.68    33.68     0  03:01       0.448       0.448       0.067
  YS02001658           JUNCTION      0.00    93.34     0  02:45           0       0.829       0.347
  YS02001661           JUNCTION      0.00    93.34     0  02:45           0       0.821       0.084
  YS02001664           JUNCTION     93.34    93.34     0  02:45       0.818       0.818       0.021
  YS02001622           JUNCTION      0.00    85.29     0  02:58           0       0.723       1.839
  YS02001633           JUNCTION     77.07   155.50     0  02:45        0.85        1.51       1.851
  YS02001649           JUNCTION      0.00   323.82     0  02:56           0        2.99       1.166
  YS02001757           JUNCTION      0.00   580.02     0  03:01           0        5.59       1.652
  YS02001895           JUNCTION      0.00   131.09     0  02:45           0        1.09       0.345
  YS02001625           JUNCTION      0.00    82.97     0  04:37           0       0.711       4.146
  YS02163301           JUNCTION      0.00    95.16     0  03:15           0       0.678       3.033
  YS02163601           JUNCTION      0.11   157.12     0  02:51      0.0031        1.47       1.915
  YS02164001           JUNCTION      0.00   158.07     0  02:48           0        1.46       1.166
  YS02001647           JUNCTION      0.00   229.51     0  02:47           0        2.22       0.993
  YSB1154              JUNCTION     13.53    13.53     0  02:15      0.0483      0.0496       2.997
  YSB6556              JUNCTION      0.00    13.53     0  02:17           0      0.0506       2.526
  YSB1174              JUNCTION     13.37    13.37     0  02:09      0.0352      0.0362       3.679
  YSB1171              JUNCTION      0.00    25.15     0  02:15           0      0.0923       7.353
  YS02006553           JUNCTION      0.00   237.30     0  02:55           0        2.32       0.620
  YS02006561           JUNCTION      0.00   354.02     0  02:53           0        3.29       0.019
  YS02006556           JUNCTION      0.00   237.24     0  02:55           0        2.33       0.448
  YS02006558           JUNCTION    111.46   347.99     0  02:52        1.02        3.32       0.139
  YS02001783           JUNCTION      0.00   348.00     0  02:52           0        3.29       0.048
  YS02001784           JUNCTION      1.06   348.63     0  02:53      0.0299        3.32       0.078
  YS02001786           JUNCTION      0.06   348.69     0  02:53     0.00159        3.32       0.075
  YS02001788           JUNCTION      0.07   348.73     0  02:53       0.002        3.32       0.044
  YS02001790           JUNCTION      0.15   348.90     0  02:54     0.00437        3.32       0.055
  YS02001791           JUNCTION      0.00   348.82     0  02:54           0        3.32       0.027
  YS02001793           JUNCTION      0.00   348.83     0  02:54           0        3.32       0.011
  WS02004139           JUNCTION      0.32   379.55     0  04:30     0.00905        5.99       0.617
  WSC                  OUTFALL       0.00   838.43     0  02:43           0        13.4       0.000
  3                    OUTFALL       0.00   597.65     0  00:00           0        2.81       0.000
  4                    OUTFALL       0.00   153.64     0  02:31           0       0.375       0.000
  5                    OUTFALL       0.00     0.00     0  00:00           0           0       0.000 ltr
  JK-storage           STORAGE       0.00   349.13     0  03:00           0        3.47     -27.239
  CC-storage           STORAGE       0.00   580.22     0  03:00           0        5.49       0.112
  XR-storage           STORAGE     329.23   329.23     0  02:54        7.08        7.68      -0.002
  
  
  **********************
  Node Surcharge Summary
  **********************
  
  Surcharging occurs when water rises above the top of the highest conduit.
  ---------------------------------------------------------------------
                                               Max. Height   Min. Depth
                                   Hours       Above Crown    Below Rim
  Node                 Type      Surcharged         Meters       Meters
  ---------------------------------------------------------------------
  WS02006109           JUNCTION        1.48          0.152        1.668
  WS02006110           JUNCTION        0.16          0.013        1.837
  WS02006112           JUNCTION        0.41          0.047        1.633
  WS02006232           JUNCTION        1.78          0.122        1.358
  WS02006234           JUNCTION        0.35          0.041        1.199
  WS02006235           JUNCTION        0.66          0.085        1.205
  WS02006238           JUNCTION        1.11          0.103        1.327
  WS02006240           JUNCTION        0.30          0.036        1.354
  WS02006242           JUNCTION        0.78          0.083        0.737
  WS02006239           JUNCTION        0.42          0.055        1.235
  WS02006252           JUNCTION        2.20          0.185        0.915
  WS02006256           JUNCTION        0.01          1.050        0.000
  WS02006228           JUNCTION        1.38          0.181        2.019
  YS02001762           JUNCTION        4.57          0.215        0.935
  YS02001765           JUNCTION        3.51          0.168        0.932
  YS02001767           JUNCTION        2.41          0.128        0.902
  YS02001770           JUNCTION        1.35          0.093        0.827
  YS02001774           JUNCTION        4.12          0.196        0.854
  YS02001759           JUNCTION        5.08          0.247        0.963
  YS02001641           JUNCTION        3.96          0.203        0.897
  YS02001644           JUNCTION        4.01          0.200        0.720
  YS02001633           JUNCTION        3.08          0.164        0.896
  YS02001649           JUNCTION        4.88          0.224        0.826
  YS02001757           JUNCTION        5.36          0.348        0.862
  YS02001625           JUNCTION        0.02          0.009        0.771
  YS02163301           JUNCTION        1.57          0.110        0.920
  YS02163601           JUNCTION        4.64          0.246        0.834
  YS02164001           JUNCTION        3.41          0.187        0.913
  YS02001647           JUNCTION        0.04          0.023        0.877
  
  
  *********************
  Node Flooding Summary
  *********************
  
  Flooding refers to all water that overflows a node, whether it ponds or not.
  --------------------------------------------------------------------------
                                                             Total   Maximum
                                 Maximum   Time of Max       Flood    Ponded
                        Hours       Rate    Occurrence      Volume     Depth
  Node                 Flooded       LPS   days hr:min    10^6 ltr    Meters
  --------------------------------------------------------------------------
  WS02006256              0.01    406.11      0  00:00       0.001     0.000
  XR-storage              2.38    309.29      0  03:20       0.851     0.000
  
  
  **********************
  Storage Volume Summary
  **********************
  
  --------------------------------------------------------------------------------------------------
                         Average     Avg  Evap Exfil       Maximum     Max    Time of Max    Maximum
                          Volume    Pcnt  Pcnt  Pcnt        Volume    Pcnt     Occurrence    Outflow
  Storage Unit           1000 m3    Full  Loss  Loss       1000 m3    Full    days hr:min        LPS
  --------------------------------------------------------------------------------------------------
  JK-storage               0.008       3     0     0         0.155      53       0  04:13     600.00
  CC-storage               0.956       6     0     0         1.638      10       0  05:39     400.00
  XR-storage               0.887      96     0     0         0.926     100       0  02:58     379.95
  
  
  ***********************
  Outfall Loading Summary
  ***********************
  
  -----------------------------------------------------------
                         Flow       Avg       Max       Total
                         Freq      Flow      Flow      Volume
  Outfall Node           Pcnt       LPS       LPS    10^6 ltr
  -----------------------------------------------------------
  WSC                   99.99    559.78    838.43      13.432
  3                     88.56    165.83    597.65       2.809
  4                     32.17     50.92    153.64       0.375
  5                      0.00      0.00      0.00       0.000
  -----------------------------------------------------------
  System                55.18    776.53   1341.80      16.615
  
  
  ********************
  Link Flow Summary
  ********************
  
  -----------------------------------------------------------------------------
                                 Maximum  Time of Max   Maximum    Max/    Max/
                                  |Flow|   Occurrence   |Veloc|    Full    Full
  Link                 Type          LPS  days hr:min     m/sec    Flow   Depth
  -----------------------------------------------------------------------------
  WS02003066WSF200     CONDUIT    533.14     0  02:38      2.71    0.09    0.23
  WS02006287WS02006284 CONDUIT    216.54     0  02:17      1.65    0.10    0.22
  WS02006284WS02006280 CONDUIT    216.64     0  02:18      1.89    0.09    0.20
  WS02006280WS02006229 CONDUIT    216.64     0  02:18      3.04    0.05    0.15
  WS02006229WS02006228 CONDUIT    536.48     0  02:30      1.07    1.78    1.00
  WS02006256WS02006235 CONDUIT    177.52     0  00:01      2.73    1.88    1.00
  WS02006253WS02006251 CONDUIT     42.54     0  02:16      0.50    0.13    0.95
  WS02006252WS02006251 CONDUIT    400.24     0  04:00      3.19    1.47    1.00
  WS02006251WS02006249 CONDUIT    435.90     0  02:30      1.18    1.26    0.92
  WS02006249WS02006248 CONDUIT    356.32     0  04:01      1.16    1.95    0.87
  WS02006248WS02006247 CONDUIT    352.21     0  04:01      1.12    0.77    0.92
  WS02006247WS02006245 CONDUIT    348.58     0  04:01      1.09    2.76    0.96
  WS02006245WS02006243 CONDUIT    345.28     0  04:02      1.11    1.02    0.98
  WS02006243WS02006242 CONDUIT    340.22     0  04:02      1.01    0.73    1.00
  WS02006242WS02006240 CONDUIT    337.23     0  04:06      0.96    1.34    1.00
  WS02006240WS02006239 CONDUIT    336.88     0  04:09      1.01    1.06    1.00
  WS02006239WS02006238 CONDUIT    336.76     0  04:10      0.93    1.08    1.00
  WS02006238WS02006235 CONDUIT    336.64     0  04:09      1.32    0.75    1.00
  WS02006235WS02006234 CONDUIT    385.23     0  05:57      1.04    4.06    1.00
  WS02006234WS02006232 CONDUIT    384.58     0  05:57      1.17    0.78    1.00
  WS02006232WS02006231 CONDUIT    384.55     0  05:57      1.05    0.81    0.99
  WS02006231WS02006230 CONDUIT    383.96     0  05:57      1.34    5.82    0.95
  WS02006230WS02006229 CONDUIT    393.67     0  05:57      1.02    8.76    1.00
  WS02006228WS02006109 CONDUIT    536.48     0  02:30      1.07    2.34    1.00
  WS02006116WS02004401 CONDUIT    537.04     0  02:33      0.77    0.74    0.84
  WS02006115WS02006116 CONDUIT    538.10     0  02:32      0.86    0.69    0.76
  WS02006113WS02006111 CONDUIT    559.16     0  02:30      2.46    0.67    0.46
  WS02006112WS02006115 CONDUIT    543.27     0  02:30      0.75    0.32    0.87
  WS02006111WS02006112 CONDUIT    541.25     0  02:30      1.50    0.26    0.67
  WS02006110WS02006113 CONDUIT    538.08     0  02:30      1.27    0.49    0.78
  WS02006109WS02006110 CONDUIT    537.73     0  02:30      1.07    1.03    1.00
  WS02004411WS02004412 CONDUIT    533.27     0  02:37      0.92    0.76    0.69
  WS02004401WS02004402 CONDUIT    536.62     0  02:34      0.75    0.64    0.86
  WS02004413WS02003067 CONDUIT    533.08     0  02:38      1.11    0.23    0.59
  WS02004412WS02004413 CONDUIT    533.14     0  02:38      0.82    0.36    0.78
  WS02004410WS02004411 CONDUIT    533.61     0  02:37      0.93    0.73    0.68
  WS02004409WS02004410 CONDUIT    534.57     0  02:36      0.96    0.69    0.67
  WS02004407WS02004409 CONDUIT    536.31     0  02:35      1.47    0.19    0.48
  WS02004406WS02004407 CONDUIT    536.35     0  02:35      1.04    0.24    0.63
  WS02004405WS02004406 CONDUIT    536.39     0  02:34      0.69    1.06    0.96
  WS02004404WS02004405 CONDUIT    536.40     0  02:34      0.69    5.26    0.96
  WS02004403WS02004404 CONDUIT    536.26     0  02:34      0.71    0.39    0.93
  WS02004402WS02004403 CONDUIT    536.35     0  02:34      0.73    0.77    0.88
  WS02004139WS02001211 CONDUIT    374.27     0  04:30      0.56    0.47    0.57
  WS02004138WS02004139 CONDUIT    379.23     0  04:30      2.39    0.08    0.43
  WS02003067WS02003066 CONDUIT    533.12     0  02:38      1.20    0.17    0.41
  WS02001213WS02003059 CONDUIT    378.43     0  04:31      0.62    0.62    0.72
  WS02001212WS02001213 CONDUIT    377.59     0  04:31      1.19    0.58    0.43
  WS02001211WS02001212 CONDUIT    378.13     0  04:31      0.74    0.29    0.62
  WS02003072WS02003073 CONDUIT    836.59     0  02:42      1.66    1.81    0.46
  WS02003069WS02003072 CONDUIT    836.58     0  02:42      1.56    0.40    0.48
  WS02003060WS02003069 CONDUIT    836.30     0  02:41      1.81    0.33    0.43
  WS02003059WS02003060 CONDUIT    379.86     0  04:32      0.82    0.25    0.62
  HS02004901HS02004770 CONDUIT     10.92     0  02:14      0.05    0.04    0.33
  HS02004876HS02004881 CONDUIT     36.84     0  02:17      0.58    0.39    0.09
  HS02004870HS02004876 CONDUIT     29.28     0  02:18      0.41    0.02    0.10
  HS02004842HS02004848 CONDUIT      5.68     0  02:30      0.03    0.00    0.28
  HS02004837HS02004842 CONDUIT      5.87     0  02:31      0.41    0.00    0.29
  HS02004830HS02004837 CONDUIT     24.65     0  02:17      0.45    0.02    0.08
  HS02004824HS02004830 CONDUIT     24.80     0  02:18      0.49    0.03    0.07
  HS02004817HS02004824 CONDUIT     40.27     0  02:21      0.17    0.02    0.40
  HS02004770HS02004777 CONDUIT     55.50     0  02:13      0.23    0.10    0.34
  HS02004799HS02004480 CONDUIT    137.26     0  02:16      0.61    0.17    0.32
  HS02004792HS02004799 CONDUIT    125.46     0  02:15      0.70    0.08    0.26
  HS02004788HS02004792 CONDUIT     73.03     0  02:16      0.85    0.05    0.12
  HS02004785HS02004788 CONDUIT     55.13     0  02:16      0.53    0.42    0.15
  HS02004777HS02004785 CONDUIT     55.08     0  02:15      0.28    0.07    0.28
  HS02004480HS02004478 CONDUIT    162.08     0  02:16      0.98    0.68    0.24
  HS02004479HS02004480 CONDUIT     25.40     0  02:18      0.16    0.02    0.31
  HS02004862HS02004870 CONDUIT     21.39     0  02:19      0.48    0.02    0.06
  HS02004848HS02004852 CONDUIT      8.69     0  02:18      0.32    0.01    0.04
  HS02004856HS02004862 CONDUIT     14.51     0  02:18      0.35    0.01    0.06
  HS02004852HS02004856 CONDUIT      8.65     0  02:19      0.13    0.01    0.09
  HS02004802HS02004478 CONDUIT     56.03     0  02:21      0.31    0.05    0.26
  HS02004478WS02006287 CONDUIT    216.51     0  02:17      1.35    0.06    0.18
  HS02004817HS02004807 CONDUIT     41.45     0  02:23      0.12    0.02    0.52
  HS02004807HS02004802 CONDUIT     55.62     0  02:20      0.26    0.11    0.31
  YS02001759YS02001757 CONDUIT    214.55     0  02:55      0.27    0.15    1.00
  YS02001762YS02001759 CONDUIT    115.34     0  03:01      0.18    0.13    1.00
  YS02001765YS02001762 CONDUIT    120.35     0  02:40      0.23    0.11    1.00
  YS02001770YS02001767 CONDUIT    127.60     0  03:00      0.30    0.51    1.00
  YS02001774YS02001770 CONDUIT     53.33     0  03:48      0.14    0.03    1.00
  YS02001779YS02001774 CONDUIT     50.18     0  03:48      0.07    0.03    0.97
  YS02001649YS02001757 CONDUIT    324.97     0  02:56      0.41    0.20    1.00
  YS02001767YS02001765 CONDUIT    117.24     0  02:36      0.25    0.15    1.00
  YS02006561YS02001783 CONDUIT    348.00     0  02:52      1.84    0.18    0.40
  YS02001783YS02001784 CONDUIT    347.57     0  02:53      1.27    0.48    0.53
  YS02001784YS02001785 CONDUIT    348.64     0  02:53      1.36    0.81    0.51
  YS02001788YS02001790 CONDUIT    348.74     0  02:54      1.93    0.26    0.39
  YS02001790YS02001791 CONDUIT    348.82     0  02:54      2.23    0.38    0.35
  YS02001791YS02001793 CONDUIT    348.83     0  02:54      4.50    0.15    0.23
  YS02001910YS02001907 CONDUIT    108.95     0  02:55      0.49    0.06    0.76
  YS02001786YS02001788 CONDUIT    348.66     0  02:53      1.80    0.67    0.41
  YS02001915YS02001910 CONDUIT    108.70     0  02:56      0.45    0.05    0.55
  YS02001918YS02001915 CONDUIT     36.52     0  03:03      0.44    0.02    0.27
  YS02001923YS02001920 CONDUIT     33.69     0  03:02      0.47    0.02    0.15
  YS02001926YS02001923 CONDUIT     33.65     0  03:01      0.51    0.05    0.14
  YS02001929YS02001926 CONDUIT     33.67     0  03:01      0.54    0.02    0.13
  YS02001920YS02001918 CONDUIT     36.54     0  03:02      0.48    0.04    0.15
  YS02001629YS02163301 CONDUIT     95.16     0  03:15      0.12    0.12    1.00
  YS02001619YS02001622 CONDUIT     85.29     0  02:58      0.66    0.13    0.69
  YS02001622YS02001625 CONDUIT     82.76     0  02:59      0.25    0.04    0.85
  YS02001625YS02001629 CONDUIT     91.22     0  03:11      0.25    0.04    0.84
  YS02163301YS02001633 CONDUIT     81.01     0  03:13      0.10    0.08    1.00
  YS02163601YS02164001 CONDUIT    158.07     0  02:48      0.20    0.14    1.00
  YS02164001YS02001641 CONDUIT    151.14     0  02:46      0.19    0.21    1.00
  YS02001641YS02001644 CONDUIT    151.46     0  03:00      0.19    0.49    1.00
  YS02001647YS02001649 CONDUIT    233.67     0  03:02      0.31    0.12    1.00
  YS02006553YS02006556 CONDUIT    237.24     0  02:55      0.34    0.20    0.84
  YS02006556YS02006558 CONDUIT    237.28     0  02:53      0.33    0.19    0.87
  YSB6556YSB1171       CONDUIT     13.75     0  02:19      0.06    0.01    0.58
  YS02001907YS02006553 CONDUIT    237.30     0  02:55      0.28    0.28    0.96
  YS02006558YS02006561 CONDUIT    354.02     0  02:53      2.41    0.78    0.52
  YS02001633YS02163601 CONDUIT    157.01     0  02:51      0.20    0.16    1.00
  YS02001644YS02001647 CONDUIT    229.51     0  02:47      0.31    0.13    1.00
  YS02001745YS02001748 CONDUIT     79.77     0  03:01      1.42    0.03    0.27
  YS02001748YS02001751 CONDUIT    120.04     0  03:19      1.10    0.06    0.62
  YS02001751YS02001754 CONDUIT     91.77     0  02:57      0.97    0.04    0.83
  YS02001754YS02001757 CONDUIT    108.70     0  03:16      0.33    0.04    1.00
  YS02001882YS02001884 CONDUIT      4.17     0  02:09      0.06    0.00    0.49
  YS02001884YS02001887 CONDUIT     11.59     0  02:06      0.06    0.02    0.58
  YS02001890YS02001895 CONDUIT    131.09     0  02:45      0.30    0.06    0.55
  YS02001895YS02001898 CONDUIT    130.95     0  02:47      0.48    0.23    0.41
  YS02001898YS02001901 CONDUIT    130.97     0  02:46      0.34    0.08    0.49
  YS02001901YS02001904 CONDUIT    131.28     0  02:51      0.30    0.20    0.54
  YS02001904YS02001907 CONDUIT    131.12     0  02:51      0.22    0.05    0.70
  YS02001887YS02001890 CONDUIT    131.42     0  02:46      0.25    0.22    0.63
  YS02001652YS02001649 CONDUIT    135.29     0  02:37      0.32    0.07    1.00
  YS02001655YS02001652 CONDUIT    120.26     0  02:42      1.04    0.06    0.88
  YS02001658YS02001655 CONDUIT    127.88     0  03:18      1.27    0.05    0.62
  YS02001661YS02001658 CONDUIT     93.34     0  02:45      1.48    0.04    0.30
  YS02001664YS02001661 CONDUIT     93.34     0  02:45      1.16    0.03    0.16
  YSB1154YSB6556       CONDUIT     13.53     0  02:17      0.19    0.02    0.47
  YSB1174YSB1171       CONDUIT     12.43     0  02:10      0.06    0.02    0.59
  YSB1171HS02004479    CONDUIT     25.16     0  02:17      0.54    0.02    0.46
  HS02004881HS02006253 CONDUIT     41.20     0  02:17      1.70    0.01    0.26
  YS02001793JiankangQianchi CONDUIT    349.13     0  03:00     13.62    0.03    0.54
  YS02001757CaochengTiaoxuchi CONDUIT    580.22     0  03:00      1.37    0.25    0.79
  WSF200WS02003060     CONDUIT    533.33     0  02:38      1.87    0.12    0.33
  1                    CONDUIT    838.43     0  02:43      3.17    0.29    0.37
  2                    CONDUIT    153.64     0  02:31      5.45    0.37    0.42
  3                    CONDUIT    597.65     0  00:00     10.05    0.95    0.86
  4                    CONDUIT      0.00     0  00:00      0.00    0.00    0.00
  CC-Pump-1            PUMP       200.00     0  02:30              1.00
  CC-Pump-2            PUMP       200.00     0  02:21              1.00
  JK-Pump-1            PUMP       300.00     0  00:00              1.00
  JK-Pump-2            PUMP       300.00     0  00:00              1.00
  XR-Pump-1            PUMP        95.00     0  00:30              1.00
  XR-Pump-2            PUMP        95.00     0  00:00              1.00
  XR-Pump-3            PUMP        95.00     0  01:00              1.00
  XR-Pump-4            PUMP        95.00     0  00:20              1.00
  
  
  ***************************
  Flow Classification Summary
  ***************************
  
  -------------------------------------------------------------------------------------
                      Adjusted    ---------- Fraction of Time in Flow Class ---------- 
                       /Actual         Up    Down  Sub   Sup   Up    Down  Norm  Inlet 
  Conduit               Length    Dry  Dry   Dry   Crit  Crit  Crit  Crit  Ltd   Ctrl  
  -------------------------------------------------------------------------------------
  WS02003066WSF200        1.00   0.07  0.00  0.00  0.00  0.93  0.00  0.00  0.64  0.00
  WS02006287WS02006284    1.00   0.03  0.02  0.00  0.66  0.29  0.00  0.00  0.77  0.00
  WS02006284WS02006280    1.00   0.04  0.00  0.00  0.00  0.00  0.00  0.96  0.00  0.00
  WS02006280WS02006229    1.00   0.04  0.00  0.00  0.00  0.00  0.00  0.96  0.00  0.00
  WS02006229WS02006228    1.00   0.00  0.00  0.00  0.98  0.00  0.00  0.02  0.00  0.00
  WS02006256WS02006235    1.00   0.00  0.00  0.00  1.00  0.00  0.00  0.00  0.00  0.00
  WS02006253WS02006251    1.00   0.02  0.01  0.00  0.96  0.00  0.00  0.00  0.00  0.00
  WS02006252WS02006251    1.00   0.08  0.00  0.00  0.00  0.00  0.92  0.00  0.00  0.00
  WS02006251WS02006249    1.00   0.00  0.00  0.00  1.00  0.00  0.00  0.00  0.27  0.00
  WS02006249WS02006248    1.00   0.00  0.02  0.00  0.90  0.00  0.08  0.00  0.00  0.00
  WS02006248WS02006247    1.00   0.02  0.00  0.00  0.97  0.00  0.00  0.01  0.18  0.00
  WS02006247WS02006245    1.00   0.02  0.00  0.00  0.96  0.00  0.00  0.02  0.00  0.00
  WS02006245WS02006243    1.00   0.02  0.00  0.00  0.94  0.00  0.00  0.05  0.01  0.00
  WS02006243WS02006242    1.00   0.01  0.00  0.00  0.99  0.00  0.00  0.00  0.27  0.00
  WS02006242WS02006240    1.00   0.01  0.00  0.00  0.99  0.00  0.00  0.00  0.00  0.00
  WS02006240WS02006239    1.00   0.00  0.00  0.00  0.95  0.00  0.00  0.04  0.02  0.00
  WS02006239WS02006238    1.00   0.00  0.00  0.00  1.00  0.00  0.00  0.00  0.02  0.00
  WS02006238WS02006235    1.00   0.00  0.00  0.00  1.00  0.00  0.00  0.00  0.00  0.00
  WS02006235WS02006234    1.00   0.00  0.00  0.00  0.95  0.00  0.05  0.00  0.00  0.00
  WS02006234WS02006232    1.00   0.00  0.00  0.00  1.00  0.00  0.00  0.00  0.09  0.00
  WS02006232WS02006231    1.00   0.00  0.00  0.00  0.99  0.00  0.01  0.00  0.00  0.00
  WS02006231WS02006230    1.00   0.00  0.00  0.00  0.57  0.00  0.43  0.00  0.00  0.00
  WS02006230WS02006229    1.00   0.00  0.00  0.00  0.98  0.00  0.00  0.02  0.01  0.00
  WS02006228WS02006109    1.00   0.00  0.00  0.00  1.00  0.00  0.00  0.00  0.00  0.00
  WS02006116WS02004401    1.00   0.02  0.00  0.00  0.98  0.00  0.00  0.00  0.00  0.00
  WS02006115WS02006116    1.00   0.02  0.00  0.00  0.97  0.00  0.00  0.01  0.01  0.00
  WS02006113WS02006111    1.00   0.02  0.00  0.00  0.00  0.98  0.00  0.00  0.11  0.00
  WS02006112WS02006115    1.00   0.02  0.00  0.00  0.98  0.00  0.00  0.00  0.00  0.00
  WS02006111WS02006112    1.00   0.02  0.00  0.00  0.98  0.00  0.00  0.00  0.98  0.00
  WS02006110WS02006113    1.00   0.02  0.00  0.00  0.98  0.00  0.00  0.00  0.00  0.00
  WS02006109WS02006110    1.00   0.00  0.02  0.00  0.98  0.00  0.00  0.00  0.00  0.00
  WS02004411WS02004412    1.00   0.05  0.00  0.00  0.95  0.00  0.00  0.00  0.00  0.00
  WS02004401WS02004402    1.00   0.02  0.00  0.00  0.98  0.00  0.00  0.00  0.00  0.00
  WS02004413WS02003067    1.00   0.05  0.01  0.00  0.00  0.00  0.93  0.00  0.00  0.00
  WS02004412WS02004413    1.00   0.05  0.00  0.00  0.95  0.00  0.00  0.00  0.02  0.00
  WS02004410WS02004411    1.00   0.05  0.00  0.00  0.95  0.00  0.00  0.00  0.00  0.00
  WS02004409WS02004410    1.00   0.05  0.00  0.00  0.95  0.00  0.00  0.00  0.00  0.00
  WS02004407WS02004409    1.00   0.05  0.00  0.00  0.95  0.00  0.00  0.00  0.79  0.00
  WS02004406WS02004407    1.00   0.00  0.05  0.00  0.95  0.00  0.00  0.00  0.00  0.00
  WS02004405WS02004406    1.00   0.00  0.00  0.00  1.00  0.00  0.00  0.00  0.02  0.00
  WS02004404WS02004405    1.00   0.00  0.00  0.00  1.00  0.00  0.00  0.00  0.00  0.00
  WS02004403WS02004404    1.00   0.00  0.02  0.00  0.98  0.00  0.00  0.00  0.02  0.00
  WS02004402WS02004403    1.00   0.02  0.00  0.00  0.98  0.00  0.00  0.00  0.00  0.00
  WS02004139WS02001211    1.00   0.00  0.00  0.00  0.99  0.00  0.01  0.00  0.00  0.00
  WS02004138WS02004139    1.00   0.00  0.00  0.00  0.98  0.01  0.00  0.00  1.00  0.00
  WS02003067WS02003066    1.00   0.07  0.00  0.00  0.93  0.00  0.00  0.00  0.00  0.00
  WS02001213WS02003059    1.00   0.00  0.01  0.00  0.99  0.00  0.00  0.00  0.00  0.00
  WS02001212WS02001213    1.00   0.01  0.00  0.00  0.89  0.00  0.10  0.00  0.00  0.00
  WS02001211WS02001212    1.00   0.00  0.01  0.00  0.99  0.00  0.00  0.00  0.00  0.00
  WS02003072WS02003073    1.00   0.00  0.00  0.00  0.00  0.00  0.00  1.00  0.00  0.00
  WS02003069WS02003072    1.00   0.00  0.00  0.00  0.99  0.01  0.00  0.00  0.30  0.00
  WS02003060WS02003069    1.00   0.00  0.00  0.00  0.98  0.02  0.00  0.00  0.17  0.00
  WS02003059WS02003060    1.00   0.00  0.00  0.00  0.99  0.01  0.00  0.00  0.02  0.00
  HS02004901HS02004770    1.00   0.04  0.00  0.00  0.96  0.00  0.00  0.00  0.02  0.00
  HS02004876HS02004881    1.00   0.02  0.00  0.00  0.98  0.00  0.00  0.00  0.00  0.00
  HS02004870HS02004876    1.00   0.01  0.00  0.00  0.99  0.00  0.00  0.00  0.95  0.00
  HS02004842HS02004848    1.00   0.00  0.04  0.00  0.96  0.00  0.00  0.00  0.68  0.00
  HS02004837HS02004842    1.00   0.00  0.00  0.00  0.99  0.01  0.00  0.00  0.11  0.00
  HS02004830HS02004837    1.00   0.00  0.00  0.00  1.00  0.00  0.00  0.00  0.99  0.00
  HS02004824HS02004830    1.00   0.00  0.00  0.00  1.00  0.00  0.00  0.00  0.00  0.00
  HS02004817HS02004824    1.00   0.00  0.00  0.00  1.00  0.00  0.00  0.00  1.00  0.00
  HS02004770HS02004777    1.00   0.00  0.04  0.00  0.96  0.00  0.00  0.00  0.07  0.00
  HS02004799HS02004480    1.00   0.00  0.02  0.00  0.95  0.00  0.03  0.00  0.00  0.00
  HS02004792HS02004799    1.00   0.00  0.00  0.00  0.99  0.01  0.00  0.00  0.98  0.00
  HS02004788HS02004792    1.00   0.00  0.00  0.00  0.98  0.02  0.00  0.00  0.98  0.00
  HS02004785HS02004788    1.00   0.00  0.00  0.00  1.00  0.00  0.00  0.00  0.00  0.00
  HS02004777HS02004785    1.00   0.00  0.00  0.00  1.00  0.00  0.00  0.00  0.20  0.00
  HS02004480HS02004478    1.00   0.04  0.00  0.00  0.71  0.00  0.00  0.25  0.00  0.00
  HS02004479HS02004480    1.00   0.02  0.00  0.00  0.98  0.00  0.00  0.00  0.15  0.00
  HS02004862HS02004870    1.00   0.00  0.00  0.00  1.00  0.00  0.00  0.00  0.06  0.00
  HS02004848HS02004852    1.00   0.04  0.00  0.00  0.96  0.00  0.00  0.00  0.71  0.00
  HS02004856HS02004862    1.00   0.00  0.06  0.00  0.94  0.00  0.00  0.00  0.75  0.00
  HS02004852HS02004856    1.00   0.04  0.01  0.00  0.95  0.00  0.00  0.00  0.83  0.00
  HS02004802HS02004478    1.00   0.04  0.00  0.00  0.96  0.00  0.00  0.00  0.01  0.00
  HS02004478WS02006287    1.00   0.05  0.00  0.00  0.86  0.09  0.00  0.00  0.77  0.00
  HS02004817HS02004807    1.00   0.00  0.04  0.00  0.96  0.00  0.00  0.00  0.00  0.00
  HS02004807HS02004802    1.00   0.04  0.00  0.00  0.96  0.00  0.00  0.00  0.01  0.00
  YS02001759YS02001757    1.00   0.00  0.00  0.00  1.00  0.00  0.00  0.00  0.17  0.00
  YS02001762YS02001759    1.00   0.00  0.00  0.00  1.00  0.00  0.00  0.00  0.04  0.00
  YS02001765YS02001762    1.00   0.00  0.00  0.00  1.00  0.00  0.00  0.00  0.22  0.00
  YS02001770YS02001767    1.00   0.00  0.00  0.00  1.00  0.00  0.00  0.00  0.00  0.00
  YS02001774YS02001770    1.00   0.00  0.04  0.00  0.95  0.00  0.00  0.00  0.07  0.00
  YS02001779YS02001774    1.00   0.00  0.00  0.00  1.00  0.00  0.00  0.00  0.26  0.00
  YS02001649YS02001757    1.00   0.00  0.00  0.00  1.00  0.00  0.00  0.00  0.19  0.00
  YS02001767YS02001765    1.00   0.00  0.00  0.00  1.00  0.00  0.00  0.00  0.01  0.00
  YS02006561YS02001783    1.00   0.06  0.00  0.00  0.00  0.94  0.00  0.00  0.73  0.00
  YS02001783YS02001784    1.00   0.00  0.06  0.00  0.94  0.00  0.00  0.00  0.00  0.00
  YS02001784YS02001785    1.00   0.00  0.00  0.00  1.00  0.00  0.00  0.00  0.25  0.00
  YS02001788YS02001790    1.00   0.00  0.00  0.00  0.07  0.93  0.00  0.00  0.75  0.00
  YS02001790YS02001791    1.00   0.00  0.00  0.00  0.02  0.98  0.00  0.00  0.56  0.00
  YS02001791YS02001793    1.00   0.00  0.00  0.00  0.00  1.00  0.00  0.00  0.00  0.00
  YS02001910YS02001907    1.00   0.00  0.00  0.00  0.98  0.00  0.00  0.02  0.13  0.00
  YS02001786YS02001788    1.00   0.00  0.00  0.00  0.07  0.93  0.00  0.00  0.00  0.00
  YS02001915YS02001910    1.00   0.00  0.00  0.00  1.00  0.00  0.00  0.00  0.24  0.00
  YS02001918YS02001915    1.00   0.00  0.01  0.00  0.99  0.00  0.00  0.00  0.82  0.00
  YS02001923YS02001920    1.00   0.00  0.00  0.00  1.00  0.00  0.00  0.00  1.00  0.00
  YS02001926YS02001923    1.00   0.00  0.03  0.00  0.00  0.00  0.97  0.00  0.00  0.00
  YS02001929YS02001926    1.00   0.00  0.04  0.00  0.96  0.00  0.00  0.00  0.87  0.00
  YS02001920YS02001918    1.00   0.00  0.01  0.00  0.99  0.00  0.00  0.00  0.00  0.00
  YS02001629YS02163301    1.00   0.05  0.00  0.00  0.94  0.00  0.00  0.00  0.00  0.00
  YS02001619YS02001622    1.00   0.04  0.00  0.00  0.96  0.00  0.00  0.00  0.00  0.00
  YS02001622YS02001625    1.00   0.04  0.00  0.00  0.96  0.00  0.00  0.00  0.13  0.00
  YS02001625YS02001629    1.00   0.04  0.03  0.00  0.92  0.00  0.02  0.00  0.00  0.00
  YS02163301YS02001633    1.00   0.00  0.05  0.00  0.95  0.00  0.00  0.00  0.00  0.00
  YS02163601YS02164001    1.00   0.00  0.03  0.00  0.97  0.00  0.00  0.00  0.00  0.00
  YS02164001YS02001641    1.00   0.01  0.02  0.00  0.97  0.00  0.00  0.00  0.07  0.00
  YS02001641YS02001644    1.00   0.00  0.01  0.00  0.99  0.00  0.00  0.00  0.00  0.00
  YS02001647YS02001649    1.00   0.00  0.06  0.00  0.94  0.00  0.00  0.00  0.01  0.00
  YS02006553YS02006556    1.00   0.02  0.00  0.00  0.98  0.00  0.00  0.00  0.03  0.00
  YS02006556YS02006558    1.00   0.00  0.00  0.00  1.00  0.00  0.00  0.00  0.00  0.00
  YSB6556YSB1171          1.00   0.02  0.02  0.00  0.96  0.00  0.00  0.00  0.00  0.00
  YS02001907YS02006553    1.00   0.00  0.02  0.00  0.98  0.00  0.00  0.00  0.00  0.00
  YS02006558YS02006561    1.00   0.06  0.00  0.00  0.00  0.94  0.00  0.00  0.69  0.00
  YS02001633YS02163601    1.00   0.00  0.01  0.00  0.99  0.00  0.00  0.00  0.19  0.00
  YS02001644YS02001647    1.00   0.00  0.06  0.00  0.94  0.00  0.00  0.00  0.00  0.00
  YS02001745YS02001748    1.00   0.00  0.00  0.00  0.86  0.01  0.00  0.12  0.67  0.00
  YS02001748YS02001751    1.00   0.00  0.00  0.00  0.97  0.03  0.00  0.00  0.24  0.00
  YS02001751YS02001754    1.00   0.00  0.00  0.00  0.93  0.00  0.00  0.07  0.02  0.00
  YS02001754YS02001757    1.00   0.00  0.00  0.00  0.99  0.01  0.00  0.00  0.26  0.00
  YS02001882YS02001884    1.00   0.05  0.00  0.00  0.95  0.00  0.00  0.00  0.00  0.00
  YS02001884YS02001887    1.00   0.03  0.01  0.00  0.96  0.00  0.00  0.00  0.00  0.00
  YS02001890YS02001895    1.00   0.00  0.05  0.00  0.94  0.00  0.00  0.00  0.00  0.00
  YS02001895YS02001898    1.00   0.06  0.00  0.00  0.93  0.00  0.01  0.00  0.00  0.00
  YS02001898YS02001901    1.00   0.05  0.00  0.00  0.94  0.00  0.00  0.00  0.02  0.00
  YS02001901YS02001904    1.00   0.05  0.00  0.00  0.95  0.00  0.00  0.00  0.00  0.00
  YS02001904YS02001907    1.00   0.00  0.05  0.00  0.95  0.00  0.00  0.00  0.00  0.00
  YS02001887YS02001890    1.00   0.00  0.00  0.00  0.98  0.00  0.02  0.00  0.00  0.00
  YS02001652YS02001649    1.00   0.00  0.00  0.00  1.00  0.00  0.00  0.00  0.25  0.00
  YS02001655YS02001652    1.00   0.00  0.00  0.00  0.93  0.00  0.00  0.07  0.02  0.00
  YS02001658YS02001655    1.00   0.00  0.05  0.00  0.92  0.03  0.00  0.00  0.11  0.00
  YS02001661YS02001658    1.00   0.05  0.00  0.00  0.86  0.09  0.00  0.00  0.64  0.00
  YS02001664YS02001661    1.00   0.04  0.00  0.00  0.71  0.25  0.00  0.00  0.86  0.00
  YSB1154YSB6556          1.00   0.04  0.00  0.00  0.96  0.00  0.00  0.00  0.02  0.00
  YSB1174YSB1171          1.00   0.02  0.01  0.00  0.97  0.00  0.00  0.00  0.00  0.00
  YSB1171HS02004479       1.00   0.02  0.00  0.00  0.98  0.00  0.00  0.00  0.13  0.00
  HS02004881HS02006253    1.00   0.03  0.00  0.00  0.77  0.01  0.00  0.19  0.58  0.00
  YS02001793JiankangQianchi    1.00   0.00  0.00  0.00  0.07  0.92  0.00  0.00  0.13  0.00
  YS02001757CaochengTiaoxuchi    1.00   0.00  0.08  0.00  0.92  0.00  0.00  0.00  0.00  0.00
  WSF200WS02003060        1.00   0.00  0.07  0.00  0.68  0.25  0.00  0.00  0.14  0.00
  1                       1.00   0.00  0.00  0.00  0.00  1.00  0.00  0.00  0.43  0.00
  2                       1.00   0.67  0.00  0.00  0.00  0.32  0.00  0.00  0.09  0.00
  3                       1.00   0.11  0.00  0.00  0.00  0.89  0.00  0.00  0.02  0.00
  4                       1.00   1.00  0.00  0.00  0.00  0.00  0.00  0.00  0.00  0.00
  
  
  *************************
  Conduit Surcharge Summary
  *************************
  
  ----------------------------------------------------------------------------
                                                           Hours        Hours 
                         --------- Hours Full --------   Above Full   Capacity
  Conduit                Both Ends  Upstream  Dnstream   Normal Flow   Limited
  ----------------------------------------------------------------------------
  WS02006229WS02006228        1.38      1.73      1.38      4.30         1.38
  WS02006256WS02006235        5.67      5.67      7.10      3.41         0.01
  WS02006252WS02006251        1.21      1.21      2.20      1.94         0.01
  WS02006251WS02006249        0.01      0.01      0.01      1.22         0.01
  WS02006249WS02006248        0.01      0.01      0.01      4.12         0.01
  WS02006247WS02006245        0.01      0.01      0.01      4.60         0.01
  WS02006245WS02006243        0.01      0.01      0.01      0.11         0.01
  WS02006243WS02006242        0.09      0.09      0.78      0.01         0.01
  WS02006242WS02006240        0.30      0.30      1.19      2.12         0.01
  WS02006240WS02006239        0.33      0.33      0.42      0.33         0.01
  WS02006239WS02006238        0.97      0.97      1.11      0.45         0.18
  WS02006238WS02006235        0.84      0.84      1.60      0.01         0.01
  WS02006235WS02006234        0.35      0.35      0.66      5.69         0.01
  WS02006234WS02006232        0.45      0.45      1.78      0.01         0.01
  WS02006232WS02006231        0.01      0.01      1.78      0.01         0.01
  WS02006231WS02006230        0.01      0.01      0.01      5.65         0.01
  WS02006230WS02006229        2.80      3.90      2.80      5.72         2.80
  WS02006228WS02006109        1.48      2.27      1.48      5.24         1.48
  WS02006112WS02006115        0.01      0.01      0.41      0.01         0.01
  WS02006111WS02006112        0.01      0.01      4.47      0.01         0.01
  WS02006110WS02006113        0.01      0.01      2.01      0.01         0.01
  WS02006109WS02006110        0.16      0.16      2.27      0.17         0.01
  WS02004405WS02004406        0.01      0.01      0.01      0.31         0.01
  WS02004404WS02004405        0.01      0.01      0.01      5.63         0.01
  WS02003072WS02003073        0.01      0.01      0.01      4.95         0.01
  YS02001759YS02001757        5.08      5.08      5.36      0.01         0.01
  YS02001762YS02001759        4.57      4.57      5.08      0.01         0.01
  YS02001765YS02001762        3.51      3.51      4.57      0.01         0.01
  YS02001770YS02001767        2.16      2.19      2.41      0.01         0.11
  YS02001774YS02001770        1.35      1.35      4.12      0.01         0.01
  YS02001779YS02001774        0.01      0.01      4.12      0.01         0.01
  YS02001649YS02001757        4.88      4.88      5.36      0.01         0.01
  YS02001767YS02001765        2.41      2.41      3.51      0.01         0.01
  YS02001629YS02163301        0.90      0.90      1.57      0.01         0.01
  YS02001622YS02001625        0.01      0.01      0.02      0.01         0.01
  YS02001625YS02001629        0.01      0.01      0.02      0.01         0.01
  YS02163301YS02001633        1.57      1.57      3.56      0.01         0.01
  YS02163601YS02164001        3.41      3.41      4.64      0.01         0.01
  YS02164001YS02001641        3.41      3.41      3.96      0.01         0.01
  YS02001641YS02001644        3.96      3.96      4.01      0.01         0.24
  YS02001647YS02001649        0.04      0.04      4.88      0.01         0.01
  YS02001633YS02163601        3.08      3.08      4.64      0.01         0.01
  YS02001644YS02001647        0.04      0.04      4.01      0.01         0.01
  YS02001754YS02001757        0.01      0.01      5.36      0.01         0.01
  YS02001652YS02001649        0.12      0.12      4.88      0.01         0.01
  YS02001793JiankangQianchi        0.01      0.01      0.38      0.01         0.01
  YS02001757CaochengTiaoxuchi        0.01      0.01      5.36      0.01         0.01
  3                           0.01      0.01      0.01      0.01         0.01
  
  
  ***************
  Pumping Summary
  ***************
  
  ---------------------------------------------------------------------------------------------------------
                                                  Min       Avg       Max     Total     Power    % Time Off
                        Percent   Number of      Flow      Flow      Flow    Volume     Usage    Pump Curve
  Pump                 Utilized   Start-Ups       LPS       LPS       LPS  10^6 ltr     Kw-hr    Low   High
  ---------------------------------------------------------------------------------------------------------
  CC-Pump-1               66.78           4      0.00    143.75    200.00     2.705      9.48    0.0   22.9
  CC-Pump-2               49.76           6      0.00    135.24    200.00     1.936      7.32    0.0   26.4
  JK-Pump-1               89.35           7      0.00    118.97    300.00     2.216     42.53    0.0    0.0
  JK-Pump-2               74.46           7      0.00    158.95    300.00     2.549     49.13    0.0    0.0
  XR-Pump-1               85.09          10      0.00     63.60     95.00     1.567     10.54    0.0    0.0
  XR-Pump-2               82.95          11      0.00     60.72     95.00     1.425      9.93    0.0    0.0
  XR-Pump-3               91.47           6      0.00     74.22     95.00     1.795     11.09    0.0    0.0
  XR-Pump-4               61.68           7      0.00     72.11     95.00     1.197      7.51    0.0    0.0
  

  Analysis begun on:  Tue Dec 21 12:01:27 2021
  Analysis ended on:  Tue Dec 21 12:01:30 2021
  Total elapsed time: 00:00:03