
  EPA STORM WATER MANAGEMENT MODEL - VERSION 5.1 (Build 5.3.0.dev0)
  --------------------------------------------------------------

  WARNING 04: minimum elevation drop used for Conduit WS02004404WS02004405
  WARNING 03: negative offset ignored for Link YS02001904YS02001907
  
  *********************************************************
  NOTE: The summary statistics displayed in this report are
  based on results found at every computational time step,  
  not just on results from each reporting time step.
  *********************************************************
  
  ****************
  Analysis Options
  ****************
  Flow Units ............... LPS
  Process Models:
    Rainfall/Runoff ........ YES
    RDII ................... NO
    Snowmelt ............... NO
    Groundwater ............ NO
    Flow Routing ........... YES
    Ponding Allowed ........ NO
    Water Quality .......... NO
  Infiltration Method ...... HORTON
  Flow Routing Method ...... DYNWAVE
  Surcharge Method ......... EXTRAN
  Starting Date ............ 08/28/2015 08:00:00
  Ending Date .............. 08/28/2015 15:50:00
  Antecedent Dry Days ...... 8.0
  Report Time Step ......... 00:01:00
  Wet Time Step ............ 00:01:00
  Dry Time Step ............ 00:01:00
  Routing Time Step ........ 5.00 sec
  Variable Time Step ....... YES
  Maximum Trials ........... 8
  Number of Threads ........ 4
  Head Tolerance ........... 0.001500 m
  
  
  **************************        Volume         Depth
  Runoff Quantity Continuity     hectare-m            mm
  **************************     ---------       -------
  Total Precipitation ......         2.737         5.993
  Evaporation Loss .........         0.000         0.000
  Infiltration Loss ........         0.688         1.506
  Surface Runoff ...........         1.163         2.547
  Final Storage ............         0.887         1.941
  Continuity Error (%) .....        -0.018
  
  
  **************************        Volume        Volume
  Flow Routing Continuity        hectare-m      10^6 ltr
  **************************     ---------     ---------
  Dry Weather Inflow .......         0.616         6.165
  Wet Weather Inflow .......         1.163        11.626
  Groundwater Inflow .......         0.000         0.000
  RDII Inflow ..............         0.000         0.000
  External Inflow ..........         0.102         1.024
  External Outflow .........         1.583        15.831
  Flooding Loss ............         0.083         0.829
  Evaporation Loss .........         0.000         0.000
  Exfiltration Loss ........         0.000         0.000
  Initial Stored Volume ....         0.076         0.761
  Final Stored Volume ......         0.421         4.211
  Continuity Error (%) .....        -6.626
  
  
  *************************
  Highest Continuity Errors
  *************************
  Node JK-storage (-34.58%)
  Node HS02004842 (28.25%)
  Node YS02001884 (22.34%)
  Node YS02001774 (9.61%)
  Node YSB1171 (6.84%)
  
  
  ***************************
  Time-Step Critical Elements
  ***************************
  Link WS02006252WS02006251 (56.44%)
  Link 3 (34.51%)
  Link WS02006238WS02006235 (3.32%)
  Link WS02006280WS02006229 (1.80%)
  
  
  ********************************
  Highest Flow Instability Indexes
  ********************************
  Link WS02006113WS02006111 (46)
  Link WS02006111WS02006112 (17)
  Link YS02006558YS02006561 (17)
  Link YS02164001YS02001641 (6)
  Link YS02001644YS02001647 (6)
  
  
  *************************
  Routing Time Step Summary
  *************************
  Minimum Time Step           :     0.44 sec
  Average Time Step           :     0.90 sec
  Maximum Time Step           :     5.00 sec
  Percent in Steady State     :    -0.00
  Average Iterations per Step :     2.57
  Percent Not Converging      :     6.93
  
  
  ***************************
  Subcatchment Runoff Summary
  ***************************
  
  ------------------------------------------------------------------------------------------------------------------------------
                            Total      Total      Total      Total     Imperv       Perv      Total       Total     Peak  Runoff
                           Precip      Runon       Evap      Infil     Runoff     Runoff     Runoff      Runoff   Runoff   Coeff
  Subcatchment                 mm         mm         mm         mm         mm         mm         mm    10^6 ltr      LPS
  ------------------------------------------------------------------------------------------------------------------------------
  sub0                       5.99       0.00       0.00       0.42       4.31       0.00       4.31        0.00     1.60   0.719
  sub1                       5.99       0.00       0.00       0.66       4.08       0.00       4.08        0.03     8.14   0.681
  sub2                       5.99       0.00       0.00       2.22       2.87       0.00       2.87        0.03     7.15   0.479
  sub3                       5.99       0.00       0.00       2.22       2.84       0.00       2.84        0.06    14.58   0.473
  sub4                       5.99       0.00       0.00       0.66       3.94       0.00       3.94        0.08    16.23   0.658
  sub5                       5.99       0.00       0.00       0.42       4.26       0.00       4.26        0.05    14.47   0.711
  sub7                       5.99       0.00       0.00       0.54       4.20       0.00       4.20        0.01     5.17   0.701
  sub8                       5.99       0.00       0.00       0.54       4.19       0.00       4.19        0.03     9.08   0.699
  sub9                       5.99       0.00       0.00       0.54       4.19       0.00       4.19        0.02     6.72   0.699
  sub10                      5.99       0.00       0.00       0.48       4.22       0.00       4.22        0.05    14.48   0.705
  sub11                      5.99       0.00       0.00       0.48       4.24       0.00       4.24        0.05    17.11   0.707
  sub12                      5.99       0.00       0.00       0.78       4.03       0.00       4.03        0.04    14.66   0.672
  sub14                      5.99       0.00       0.00       0.54       4.19       0.00       4.19        0.04    13.13   0.699
  sub15                      5.99       0.00       0.00       1.80       3.22       0.00       3.22        0.06    17.78   0.537
  sub16                      5.99       0.00       0.00       1.98       3.10       0.00       3.10        0.03    12.85   0.517
  sub17                      5.99       0.00       0.00       1.92       3.14       0.00       3.14        0.03    10.35   0.524
  sub22                      5.99       0.00       0.00       2.58       2.63       0.00       2.63        0.17    58.61   0.438
  sub23                      5.99       0.00       0.00       2.22       2.91       0.00       2.91        0.14    49.95   0.485
  sub60                      5.99       0.00       0.00       0.72       2.84       0.00       2.84        0.86    79.26   0.473
  sub61                      5.99       0.00       0.00       1.02       3.03       0.00       3.03        0.94   100.33   0.506
  sub62                      5.99       0.00       0.00       0.48       3.25       0.00       3.25        1.00   102.25   0.543
  sub63                      5.99       0.00       0.00       1.74       2.70       0.00       2.70        0.82    94.01   0.451
  sub64                      5.99       0.00       0.00       0.90       2.71       0.00       2.71        0.82    75.25   0.453
  sub65                      5.99       0.00       0.00       0.78       2.75       0.00       2.75        0.84    76.32   0.458
  sub66                      5.99       0.00       0.00       1.74       2.37       0.00       2.37        0.73    69.14   0.395
  sub67                      5.99       0.00       0.00       0.48       3.57       0.00       3.57        1.10   132.46   0.596
  sub68                      5.99       0.00       0.00       0.84       3.23       0.00       3.23        0.99   111.20   0.538
  sub69                      5.99       0.00       0.00       0.90       3.48       0.00       3.48        0.81   111.68   0.581
  sub70                      5.99       3.55       0.00       3.25       4.28       0.00       4.28        0.98    88.41   0.448
  sub71                      5.99       0.00       0.00       0.48       3.11       0.00       3.11        0.73    71.14   0.519
  sub72                      5.99       0.00       0.00       0.42       2.20       0.00       2.20        0.45    33.50   0.367
  sub73                      5.99       4.16       0.00       3.45       4.36       0.00       4.36        1.02    75.96   0.429
  sub74                      5.99       0.00       0.00       4.49       1.05       0.00       1.05        0.42    62.58   0.175
  
  
  ******************
  Node Depth Summary
  ******************
  
  ---------------------------------------------------------------------------------
                                 Average  Maximum  Maximum  Time of Max    Reported
                                   Depth    Depth      HGL   Occurrence   Max Depth
  Node                 Type       Meters   Meters   Meters  days hr:min      Meters
  ---------------------------------------------------------------------------------
  WS02001211           JUNCTION     0.62     0.76     5.59     0  07:21        0.76
  WS02001212           JUNCTION     0.35     0.46     5.53     0  03:52        0.46
  WS02001213           JUNCTION     0.59     0.70     5.47     0  02:39        0.70
  WS02003069           JUNCTION     0.41     0.55     5.13     0  02:38        0.55
  WS02003072           JUNCTION     0.48     0.61     4.98     0  02:39        0.61
  WS02003073           JUNCTION     0.29     0.37     4.44     0  02:39        0.37
  WS02003060           JUNCTION     0.37     0.48     5.42     0  02:38        0.48
  WS02003066           JUNCTION     0.22     0.30     5.85     0  02:35        0.30
  WS02003059           JUNCTION     0.65     0.76     5.45     0  02:38        0.76
  WS02003067           JUNCTION     0.55     0.70     6.02     0  02:35        0.70
  WS02004401           JUNCTION     0.65     0.86     6.86     0  02:32        0.86
  WS02004402           JUNCTION     0.68     0.89     6.85     0  02:32        0.89
  WS02004403           JUNCTION     0.70     0.90     6.83     0  02:31        0.90
  WS02004404           JUNCTION     0.78     0.97     6.82     0  02:33        0.97
  WS02004406           JUNCTION     0.79     0.96     6.79     0  02:32        0.96
  WS02004409           JUNCTION     0.47     0.67     6.44     0  02:35        0.67
  WS02004410           JUNCTION     0.49     0.69     6.41     0  02:34        0.69
  WS02004411           JUNCTION     0.50     0.69     6.37     0  02:35        0.69
  WS02004412           JUNCTION     0.52     0.70     6.34     0  02:35        0.70
  WS02004413           JUNCTION     0.68     0.86     6.33     0  02:35        0.86
  WS02004405           JUNCTION     0.78     0.96     6.81     0  02:32        0.96
  WS02006109           JUNCTION     0.73     0.99     7.61     0  02:25        0.99
  WS02006110           JUNCTION     0.73     0.94     7.52     0  02:26        0.93
  WS02006111           JUNCTION     0.21     0.29     7.00     0  02:27        0.29
  WS02006112           JUNCTION     0.82     1.06     6.94     0  02:30        1.06
  WS02006113           JUNCTION     0.32     0.46     7.36     0  02:26        0.46
  WS02006115           JUNCTION     0.54     0.76     6.90     0  02:32        0.76
  WS02006116           JUNCTION     0.62     0.84     6.88     0  02:32        0.84
  WS02006230           JUNCTION     0.69     1.05     7.80     0  02:25        1.05
  WS02006231           JUNCTION     0.46     0.72     7.85     0  02:25        0.72
  WS02006232           JUNCTION     0.60     0.86     7.90     0  02:26        0.85
  WS02006234           JUNCTION     0.51     0.80     7.96     0  02:26        0.79
  WS02006235           JUNCTION     0.55     0.83     7.99     0  02:26        0.82
  WS02006238           JUNCTION     0.57     0.85     8.00     0  02:26        0.85
  WS02006240           JUNCTION     0.47     0.77     8.07     0  02:25        0.77
  WS02006242           JUNCTION     0.52     0.84     8.11     0  02:25        0.82
  WS02006243           JUNCTION     0.40     0.73     8.15     0  02:25        0.71
  WS02006245           JUNCTION     0.38     0.70     8.18     0  02:25        0.69
  WS02006247           JUNCTION     0.41     0.71     8.21     0  02:25        0.69
  WS02006248           JUNCTION     0.35     0.64     8.23     0  02:25        0.63
  WS02006249           JUNCTION     0.39     0.64     8.23     0  02:27        0.63
  WS02006239           JUNCTION     0.53     0.83     8.03     0  02:24        0.82
  WS02006251           JUNCTION     0.38     0.67     8.34     0  02:26        0.67
  WS02006252           JUNCTION     0.34     0.59     8.83     0  02:20        0.58
  WS02006253           JUNCTION     0.40     0.70     8.34     0  02:27        0.70
  WS02006256           JUNCTION     1.01     2.35     9.28     0  00:00        1.21
  WS02004138           JUNCTION     0.14     0.19     7.44     0  07:20        0.19
  WS02004407           JUNCTION     0.21     0.30     6.61     0  02:33        0.30
  WS02006228           JUNCTION     0.72     1.04     7.69     0  02:25        1.03
  WS02006229           JUNCTION     0.70     1.04     7.74     0  02:25        1.04
  WS02006280           JUNCTION     0.06     0.15     8.42     0  02:17        0.15
  WS02006284           JUNCTION     0.35     0.49     8.89     0  02:17        0.49
  WS02006287           JUNCTION     0.08     0.22     9.18     0  02:16        0.22
  WSF200               JUNCTION     0.21     0.31     5.55     0  02:35        0.31
  HS02004901           JUNCTION     0.11     0.24    10.06     0  02:14        0.24
  HS02004881           JUNCTION     0.01     0.03     9.05     0  02:16        0.03
  HS02004876           JUNCTION     0.04     0.10     9.13     0  02:14        0.10
  HS02004870           JUNCTION     0.01     0.04     9.33     0  02:17        0.04
  HS02004862           JUNCTION     0.01     0.05     9.43     0  02:17        0.05
  HS02004856           JUNCTION     0.07     0.11     9.53     0  02:17        0.11
  HS02004852           JUNCTION     0.01     0.03     9.54     0  02:18        0.03
  HS02004848           JUNCTION     0.01     0.03     9.63     0  02:16        0.03
  HS02004842           JUNCTION     0.33     0.36     9.63     0  02:16        0.36
  HS02004837           JUNCTION     0.03     0.05     9.63     0  02:16        0.05
  HS02004830           JUNCTION     0.04     0.06     9.53     0  02:16        0.06
  HS02004824           JUNCTION     0.02     0.04     9.44     0  02:19        0.04
  HS02004817           JUNCTION     0.43     0.53     9.38     0  02:17        0.53
  HS02004807           JUNCTION     0.11     0.21     9.38     0  02:17        0.21
  HS02004802           JUNCTION     0.15     0.24     9.37     0  02:17        0.24
  HS02004799           JUNCTION     0.10     0.27     9.48     0  02:15        0.27
  HS02004792           JUNCTION     0.02     0.10     9.63     0  02:14        0.10
  HS02004788           JUNCTION     0.02     0.08     9.98     0  02:15        0.08
  HS02004785           JUNCTION     0.04     0.14    10.04     0  02:15        0.14
  HS02004777           JUNCTION     0.14     0.26    10.06     0  02:15        0.26
  HS02004770           JUNCTION     0.10     0.23    10.06     0  02:14        0.23
  HS02004480           JUNCTION     0.07     0.21     9.45     0  02:16        0.21
  HS02004479           JUNCTION     0.10     0.25     9.45     0  02:15        0.25
  HS02004478           JUNCTION     0.05     0.13     9.36     0  02:17        0.13
  YS02001745           JUNCTION     0.11     0.24     7.75     0  06:32        0.24
  YS02001748           JUNCTION     0.45     0.66     7.73     0  06:26        0.65
  YS02001751           JUNCTION     0.63     0.86     7.74     0  06:27        0.85
  YS02001754           JUNCTION     0.88     1.16     7.77     0  06:55        1.12
  YS02001762           JUNCTION     1.07     1.52     7.92     0  05:16        1.38
  YS02001765           JUNCTION     1.03     1.55     8.00     0  05:16        1.36
  YS02001767           JUNCTION     0.99     1.59     8.08     0  05:16        1.34
  YS02001770           JUNCTION     0.99     1.71     8.20     0  05:22        1.37
  YS02001774           JUNCTION     1.05     1.82     8.24     0  05:22        1.46
  YS02001779           JUNCTION     0.81     1.57     8.26     0  05:22        1.22
  YS02001882           JUNCTION     0.30     0.47     7.18     0  02:47        0.47
  YS02001884           JUNCTION     0.39     0.57     7.18     0  02:47        0.57
  YS02001759           JUNCTION     1.11     1.47     7.83     0  05:14        1.39
  YS02001887           JUNCTION     0.47     0.65     7.18     0  02:47        0.65
  YS02001890           JUNCTION     0.50     0.68     7.18     0  02:46        0.68
  YS02001898           JUNCTION     0.27     0.43     7.17     0  02:46        0.43
  YS02001901           JUNCTION     0.38     0.56     7.17     0  02:46        0.56
  YS02001904           JUNCTION     0.36     0.53     7.16     0  02:47        0.53
  YS02001907           JUNCTION     0.69     0.87     7.16     0  02:47        0.87
  YS02001910           JUNCTION     0.48     0.66     7.16     0  02:46        0.66
  YS02001915           JUNCTION     0.28     0.45     7.16     0  02:46        0.44
  YS02001918           JUNCTION     0.08     0.10     7.16     0  03:03        0.10
  YS02001619           JUNCTION     0.59     0.80     7.73     0  06:25        0.80
  YS02001629           JUNCTION     0.94     1.18     7.73     0  06:26        1.18
  YS02001641           JUNCTION     1.04     1.33     7.77     0  06:31        1.31
  YS02001644           JUNCTION     1.05     1.34     7.77     0  06:31        1.32
  YS02001652           JUNCTION     0.89     1.15     7.74     0  05:09        1.13
  YS02001655           JUNCTION     0.65     0.89     7.74     0  06:35        0.88
  YS02001920           JUNCTION     0.18     0.21     7.22     0  03:02        0.21
  YS02001923           JUNCTION     0.07     0.09     7.35     0  03:01        0.09
  YS02001926           JUNCTION     0.14     0.18     7.62     0  03:01        0.18
  YS02001929           JUNCTION     0.07     0.09     7.78     0  03:01        0.09
  YS02001658           JUNCTION     0.39     0.60     7.74     0  06:23        0.59
  YS02001661           JUNCTION     0.20     0.32     7.73     0  06:27        0.32
  YS02001664           JUNCTION     0.07     0.12     8.04     0  02:41        0.12
  YS02001622           JUNCTION     0.61     0.82     7.72     0  06:25        0.81
  YS02001633           JUNCTION     1.03     1.29     7.74     0  05:58        1.27
  YS02001649           JUNCTION     1.08     1.36     7.75     0  06:33        1.34
  YS02001757           JUNCTION     1.21     1.49     7.75     0  05:09        1.47
  YS02001895           JUNCTION     0.26     0.43     7.17     0  02:46        0.43
  YS02001625           JUNCTION     0.89     1.12     7.73     0  06:35        1.11
  YS02163301           JUNCTION     0.97     1.22     7.74     0  05:58        1.21
  YS02163601           JUNCTION     1.08     1.36     7.76     0  06:38        1.34
  YS02164001           JUNCTION     1.02     1.31     7.77     0  06:31        1.29
  YS02001647           JUNCTION     0.88     1.16     7.77     0  06:31        1.14
  YSB1154              JUNCTION     0.24     0.39     9.45     0  02:16        0.39
  YSB6556              JUNCTION     0.14     0.28     9.45     0  02:15        0.28
  YSB1174              JUNCTION     0.19     0.34     9.45     0  02:16        0.34
  YSB1171              JUNCTION     0.39     0.55     9.45     0  02:15        0.55
  YS02006553           JUNCTION     0.70     0.88     7.16     0  02:47        0.88
  YS02006561           JUNCTION     0.14     0.23     6.89     0  02:47        0.23
  YS02006556           JUNCTION     0.67     0.85     7.16     0  02:47        0.85
  YS02006558           JUNCTION     0.71     0.89     7.16     0  02:47        0.89
  YS02001783           JUNCTION     0.25     0.41     6.56     0  02:47        0.41
  YS02001784           JUNCTION     0.28     0.44     6.51     0  02:49        0.44
  YS02001786           JUNCTION     0.24     0.37     6.40     0  02:49        0.37
  YS02001788           JUNCTION     0.18     0.28     6.26     0  02:50        0.28
  YS02001790           JUNCTION     0.21     0.34     5.99     0  02:50        0.34
  YS02001791           JUNCTION     0.14     0.22     5.69     0  03:01        0.22
  YS02001793           JUNCTION     0.09     0.15     4.98     0  02:50        0.15
  WS02004139           JUNCTION     0.56     0.70     5.61     0  07:22        0.70
  WSC                  OUTFALL      0.28     0.37     1.04     0  02:40        0.37
  3                    OUTFALL      0.08     0.23     6.23     0  00:00        0.21
  4                    OUTFALL      0.02     0.14     7.14     0  02:27        0.13
  5                    OUTFALL      0.00     0.00     5.00     0  00:00        0.00
  JK-storage           STORAGE      0.06     3.00     3.80     0  00:00        2.39
  CC-storage           STORAGE      0.44     0.71     7.71     0  06:27        0.71
  XR-storage           STORAGE      6.65     7.72     5.72     0  03:29        7.72
  
  
  *******************
  Node Inflow Summary
  *******************
  
  -------------------------------------------------------------------------------------------------
                                  Maximum  Maximum                  Lateral       Total        Flow
                                  Lateral    Total  Time of Max      Inflow      Inflow     Balance
                                   Inflow   Inflow   Occurrence      Volume      Volume       Error
  Node                 Type           LPS      LPS  days hr:min    10^6 ltr    10^6 ltr     Percent
  -------------------------------------------------------------------------------------------------
  WS02001211           JUNCTION      7.35   377.14     0  07:20       0.207        6.12       0.356
  WS02001212           JUNCTION      0.00   371.06     0  07:21           0        6.09       0.280
  WS02001213           JUNCTION      0.00   369.61     0  07:22           0        6.08       0.221
  WS02003069           JUNCTION      0.32   846.57     0  02:38     0.00902        12.9       0.171
  WS02003072           JUNCTION      0.00   846.47     0  02:39           0        12.9       0.225
  WS02003073           JUNCTION      1.82   848.27     0  02:39      0.0514        12.9       0.245
  WS02003060           JUNCTION     16.53   846.34     0  02:37       0.466        12.9       0.166
  WS02003066           JUNCTION      0.00   544.11     0  02:35           0        6.41       0.066
  WS02003059           JUNCTION      0.00   369.57     0  07:22           0        6.07       0.475
  WS02003067           JUNCTION      0.00   543.98     0  02:35           0        6.42       0.140
  WS02004401           JUNCTION      0.00   552.62     0  02:30           0        6.64       0.312
  WS02004402           JUNCTION      0.00   550.51     0  02:30           0        6.62       0.296
  WS02004403           JUNCTION      0.00   550.04     0  02:30           0         6.6       0.270
  WS02004404           JUNCTION      0.16   550.76     0  02:31     0.00457        6.59       0.204
  WS02004406           JUNCTION      0.00   550.29     0  02:32           0        6.56       0.498
  WS02004409           JUNCTION      0.00   548.40     0  02:33           0        6.52       0.237
  WS02004410           JUNCTION      0.00   546.22     0  02:33           0         6.5       0.269
  WS02004411           JUNCTION      0.00   545.12     0  02:34           0        6.49       0.277
  WS02004412           JUNCTION      0.00   544.53     0  02:34           0        6.47       0.302
  WS02004413           JUNCTION      0.00   544.09     0  02:35           0        6.45       0.450
  WS02004405           JUNCTION      0.04   551.35     0  02:31     0.00107        6.58       0.309
  WS02006109           JUNCTION      1.23   558.22     0  02:26      0.0347        6.73       0.300
  WS02006110           JUNCTION      0.00   558.20     0  02:26           0        6.71       0.285
  WS02006111           JUNCTION      0.00   581.23     0  02:26           0        6.69       0.059
  WS02006112           JUNCTION     10.35   568.05     0  02:26      0.0269        6.71       0.404
  WS02006113           JUNCTION      0.00   558.04     0  02:25           0         6.7       0.140
  WS02006115           JUNCTION      0.00   561.84     0  02:26           0        6.68       0.292
  WS02006116           JUNCTION      0.00   555.40     0  02:30           0        6.66       0.283
  WS02006230           JUNCTION     10.28   396.62     0  03:32        0.29        5.82       0.233
  WS02006231           JUNCTION      0.00   386.71     0  03:31           0        5.54       0.175
  WS02006232           JUNCTION      0.00   386.72     0  03:31           0        5.55       0.282
  WS02006234           JUNCTION      0.00   386.94     0  03:31           0        5.56       0.128
  WS02006235           JUNCTION      0.00   386.89     0  03:31           0         5.6       0.189
  WS02006238           JUNCTION      0.00   312.53     0  07:01           0         3.7       0.196
  WS02006240           JUNCTION      0.00   326.39     0  02:23           0        3.69       0.300
  WS02006242           JUNCTION      0.00   341.80     0  02:23           0        3.69       0.376
  WS02006243           JUNCTION      0.00   357.33     0  02:22           0        3.69      -0.126
  WS02006245           JUNCTION      0.00   367.53     0  02:22           0         3.7       0.331
  WS02006247           JUNCTION      0.00   374.56     0  02:22           0         3.7       0.193
  WS02006248           JUNCTION      0.00   381.43     0  02:21           0        3.71       0.052
  WS02006249           JUNCTION      0.00   441.42     0  02:27           0        3.96       0.332
  WS02006239           JUNCTION      0.00   314.44     0  07:01           0        3.69       0.295
  WS02006251           JUNCTION      0.08   444.12     0  02:27     0.00217        3.99       0.214
  WS02006252           JUNCTION      0.00   400.00     0  02:20           0        3.82       0.011
  WS02006253           JUNCTION      1.60    53.49     0  02:19     0.00349        0.18       2.137
  WS02006256           JUNCTION      0.00   600.00     0  00:00           0        4.66       0.045
  WS02004138           JUNCTION      0.00   379.95     0  07:20           0        5.93       0.056
  WS02004407           JUNCTION      0.00   548.77     0  02:33           0        6.53       0.107
  WS02006228           JUNCTION      0.00   556.99     0  02:26           0        6.72       0.226
  WS02006229           JUNCTION      0.00   557.56     0  02:26           0        6.73       0.178
  WS02006280           JUNCTION      0.00   230.86     0  02:17           0       0.922       0.007
  WS02006284           JUNCTION      0.10   230.84     0  02:17      0.0027       0.923       0.114
  WS02006287           JUNCTION      0.00   230.71     0  02:17           0       0.921       0.079
  WSF200               JUNCTION      0.00   544.16     0  02:35           0        6.41       0.063
  HS02004901           JUNCTION     12.85    12.85     0  02:09      0.0324      0.0325       5.705
  HS02004881           JUNCTION      5.17    44.07     0  02:16      0.0141       0.149       0.214
  HS02004876           JUNCTION      8.14    39.25     0  02:16      0.0271       0.135       0.391
  HS02004870           JUNCTION      9.08    31.31     0  02:16      0.0268       0.108       0.098
  HS02004862           JUNCTION      7.35    22.88     0  02:17      0.0324      0.0818       0.206
  HS02004856           JUNCTION      6.72    15.60     0  02:16      0.0201      0.0509       2.915
  HS02004852           JUNCTION      0.00     9.33     0  02:16           0      0.0308       0.164
  HS02004848           JUNCTION     14.58    14.58     0  02:19      0.0638      0.0638       0.068
  HS02004842           JUNCTION      0.00     5.80     0  02:28           0       0.046      39.372
  HS02004837           JUNCTION     20.83    25.68     0  02:15       0.226       0.259       0.315
  HS02004830           JUNCTION      0.15    25.81     0  02:16     0.00423       0.249       0.497
  HS02004824           JUNCTION     16.28    41.90     0  02:19      0.0836       0.331       0.163
  HS02004817           JUNCTION      0.60    42.49     0  02:19      0.0169       0.348       5.033
  HS02004807           JUNCTION     17.11    57.99     0  02:18      0.0492        0.38       1.123
  HS02004802           JUNCTION      0.00    58.34     0  02:19           0       0.376       1.091
  HS02004799           JUNCTION     13.13   147.39     0  02:14      0.0398       0.481       0.473
  HS02004792           JUNCTION     58.89   134.59     0  02:14       0.174       0.441       0.092
  HS02004788           JUNCTION     19.45    78.34     0  02:15       0.102       0.269       0.144
  HS02004785           JUNCTION      0.15    59.35     0  02:14     0.00423       0.168       0.288
  HS02004777           JUNCTION      0.03    59.84     0  02:13    0.000846       0.168       3.169
  HS02004770           JUNCTION     49.95    61.25     0  02:11       0.138       0.169       1.862
  HS02004480           JUNCTION      0.00   173.68     0  02:16           0       0.561       0.131
  HS02004479           JUNCTION      0.00    26.95     0  02:16           0      0.0929       0.791
  HS02004478           JUNCTION      0.00   230.71     0  02:17           0       0.922       0.067
  YS02001745           JUNCTION     79.27    79.27     0  02:56        0.86        0.89       0.149
  YS02001748           JUNCTION      0.04   109.90     0  05:06     0.00127       0.918       1.036
  YS02001751           JUNCTION      0.01   135.60     0  03:50     0.00031       0.883       2.014
  YS02001754           JUNCTION      0.26    97.45     0  03:18     0.00733       0.847       2.814
  YS02001762           JUNCTION      0.00   118.51     0  02:37           0       0.944       2.199
  YS02001765           JUNCTION      0.00   124.74     0  02:43           0       0.944       2.493
  YS02001767           JUNCTION      0.54   135.48     0  03:30      0.0151       0.964       3.786
  YS02001770           JUNCTION    102.41   141.18     0  03:31           1        1.12       2.701
  YS02001774           JUNCTION      0.00    65.70     0  03:44           0       0.262      10.631
  YS02001779           JUNCTION      0.01    61.42     0  03:30    0.000141       0.122      11.080
  YS02001882           JUNCTION      0.00     4.64     0  02:07           0     0.00556      43.687
  YS02001884           JUNCTION      0.00    13.23     0  02:07           0      0.0219      28.760
  YS02001759           JUNCTION    100.37   217.59     0  02:50       0.936        1.84       1.240
  YS02001887           JUNCTION    132.91   132.91     0  02:39        1.12        1.13       0.642
  YS02001890           JUNCTION      0.00   132.47     0  02:41           0         1.1       0.720
  YS02001898           JUNCTION      0.00   132.00     0  02:48           0        1.09       0.203
  YS02001901           JUNCTION      0.00   132.23     0  02:48           0        1.09       0.512
  YS02001904           JUNCTION      0.00   131.95     0  02:48           0        1.09       0.476
  YS02001907           JUNCTION      0.00   238.06     0  02:49           0        2.33       0.956
  YS02001910           JUNCTION      0.00   107.93     0  02:57           0        1.26       0.818
  YS02001915           JUNCTION     71.16   106.85     0  02:59       0.735        1.26       0.365
  YS02001918           JUNCTION      0.00    36.38     0  03:02           0       0.526       0.219
  YS02001619           JUNCTION     69.14    69.14     0  02:53       0.725       0.729       1.162
  YS02001629           JUNCTION      0.00   100.81     0  03:30           0        0.68       3.319
  YS02001641           JUNCTION      0.00   154.89     0  03:16           0        1.42       1.507
  YS02001644           JUNCTION     75.28   229.31     0  03:04       0.825        2.21       1.204
  YS02001652           JUNCTION      0.00   121.75     0  02:42           0       0.816       2.700
  YS02001655           JUNCTION      0.15   148.45     0  03:12     0.00434       0.868       2.248
  YS02001920           JUNCTION      2.87    36.39     0  03:01      0.0809       0.528       0.392
  YS02001923           JUNCTION      0.04    33.53     0  03:01     0.00106       0.448       0.069
  YS02001926           JUNCTION      0.05    33.54     0  03:01     0.00147       0.449       0.491
  YS02001929           JUNCTION     33.50    33.50     0  03:01       0.448       0.448       0.067
  YS02001658           JUNCTION      0.00   120.83     0  05:03           0       0.938       1.054
  YS02001661           JUNCTION      0.00    97.41     0  05:02           0       0.891       0.218
  YS02001664           JUNCTION     94.01    94.01     0  02:41       0.817       0.817       0.017
  YS02001622           JUNCTION      0.00    82.30     0  03:02           0       0.747       3.193
  YS02001633           JUNCTION     76.52   164.23     0  03:15        0.85        1.47       2.180
  YS02001649           JUNCTION      0.00   326.92     0  03:08           0        2.93       1.265
  YS02001757           JUNCTION      0.00   579.49     0  02:57           0        5.48       1.707
  YS02001895           JUNCTION      0.00   131.92     0  02:41           0        1.09       0.347
  YS02001625           JUNCTION      0.00    91.76     0  03:21           0       0.741       5.406
  YS02163301           JUNCTION      0.00   116.47     0  03:17           0       0.648       3.812
  YS02163601           JUNCTION      0.11   156.81     0  02:46      0.0031        1.43       2.121
  YS02164001           JUNCTION      0.00   155.79     0  02:46           0        1.42       1.416
  YS02001647           JUNCTION      0.00   236.13     0  03:17           0        2.17       1.195
  YSB1154              JUNCTION     14.47    14.47     0  02:13      0.0483      0.0497       2.994
  YSB6556              JUNCTION      0.00    14.37     0  02:15           0      0.0507       2.520
  YSB1174              JUNCTION     14.66    14.66     0  02:08      0.0351      0.0362       3.674
  YSB1171              JUNCTION      0.00    26.91     0  02:15           0      0.0924       7.340
  YS02006553           JUNCTION      0.00   237.80     0  02:48           0        2.32       0.620
  YS02006561           JUNCTION      0.00   355.42     0  02:47           0        3.29       0.019
  YS02006556           JUNCTION      0.00   237.80     0  02:49           0        2.33       0.447
  YS02006558           JUNCTION    112.08   349.05     0  02:47        1.02        3.32       0.138
  YS02001783           JUNCTION      0.00   349.05     0  02:47           0        3.29       0.047
  YS02001784           JUNCTION      1.06   349.83     0  02:49      0.0299        3.32       0.078
  YS02001786           JUNCTION      0.06   349.86     0  02:49     0.00159        3.31       0.075
  YS02001788           JUNCTION      0.07   349.90     0  02:50       0.002        3.31       0.044
  YS02001790           JUNCTION      0.15   350.08     0  02:50     0.00437        3.32       0.055
  YS02001791           JUNCTION      0.00   350.05     0  02:50           0        3.31       0.027
  YS02001793           JUNCTION      0.00   350.05     0  02:50           0        3.31       0.010
  WS02004139           JUNCTION      0.32   379.27     0  07:20     0.00905        5.93       0.437
  WSC                  OUTFALL       0.00   848.25     0  02:40           0        12.9       0.000
  3                    OUTFALL       0.00   597.65     0  00:00           0        2.73       0.000
  4                    OUTFALL       0.00   175.19     0  02:27           0       0.238       0.000
  5                    OUTFALL       0.00     0.00     0  00:00           0           0       0.000 ltr
  JK-storage           STORAGE       0.00   350.05     0  02:50           0        3.46     -25.695
  CC-storage           STORAGE       0.00   579.62     0  02:56           0        5.38      -0.763
  XR-storage           STORAGE     329.03   329.03     0  02:48        7.08        7.68      -0.004
  
  
  **********************
  Node Surcharge Summary
  **********************
  
  Surcharging occurs when water rises above the top of the highest conduit.
  ---------------------------------------------------------------------
                                               Max. Height   Min. Depth
                                   Hours       Above Crown    Below Rim
  Node                 Type      Surcharged         Meters       Meters
  ---------------------------------------------------------------------
  WS02006109           JUNCTION        1.44          0.174        1.646
  WS02006110           JUNCTION        0.19          0.026        1.824
  WS02006112           JUNCTION        0.34          0.062        1.618
  WS02006231           JUNCTION        0.04          0.014        1.516
  WS02006232           JUNCTION        1.60          0.158        1.322
  WS02006234           JUNCTION        0.24          0.079        1.161
  WS02006235           JUNCTION        0.73          0.116        1.174
  WS02006238           JUNCTION        1.01          0.133        1.297
  WS02006240           JUNCTION        0.18          0.063        1.327
  WS02006242           JUNCTION        0.58          0.110        0.710
  WS02006243           JUNCTION        0.01          0.017        0.753
  WS02006239           JUNCTION        0.40          0.086        1.204
  WS02006252           JUNCTION        1.40          0.186        0.914
  WS02006256           JUNCTION        0.01          1.050        0.000
  WS02006228           JUNCTION        1.39          0.209        1.991
  YS02001754           JUNCTION        1.55          0.110        1.040
  YS02001762           JUNCTION        5.18          0.521        0.629
  YS02001765           JUNCTION        4.76          0.546        0.554
  YS02001767           JUNCTION        4.03          0.590        0.440
  YS02001770           JUNCTION        3.84          0.676        0.244
  YS02001774           JUNCTION        5.14          0.816        0.234
  YS02001779           JUNCTION        0.65          0.573        0.107
  YS02001759           JUNCTION        5.25          0.471        0.739
  YS02001641           JUNCTION        5.11          0.332        0.768
  YS02001644           JUNCTION        5.13          0.342        0.578
  YS02001652           JUNCTION        2.35          0.118        1.012
  YS02001633           JUNCTION        4.43          0.271        0.789
  YS02001649           JUNCTION        5.21          0.362        0.688
  YS02001757           JUNCTION        5.38          0.491        0.719
  YS02001625           JUNCTION        2.94          0.123        0.657
  YS02163301           JUNCTION        3.87          0.219        0.811
  YS02163601           JUNCTION        5.21          0.359        0.721
  YS02164001           JUNCTION        4.75          0.311        0.789
  YS02001647           JUNCTION        2.77          0.165        0.735
  
  
  *********************
  Node Flooding Summary
  *********************
  
  Flooding refers to all water that overflows a node, whether it ponds or not.
  --------------------------------------------------------------------------
                                                             Total   Maximum
                                 Maximum   Time of Max       Flood    Ponded
                        Hours       Rate    Occurrence      Volume     Depth
  Node                 Flooded       LPS   days hr:min    10^6 ltr    Meters
  --------------------------------------------------------------------------
  WS02006256              0.01    406.11      0  00:00       0.001     0.000
  XR-storage              2.07    266.71      0  04:40       0.829     0.000
  
  
  **********************
  Storage Volume Summary
  **********************
  
  --------------------------------------------------------------------------------------------------
                         Average     Avg  Evap Exfil       Maximum     Max    Time of Max    Maximum
                          Volume    Pcnt  Pcnt  Pcnt        Volume    Pcnt     Occurrence    Outflow
  Storage Unit           1000 m3    Full  Loss  Loss       1000 m3    Full    days hr:min        LPS
  --------------------------------------------------------------------------------------------------
  JK-storage               0.003       1     0     0         0.151      52       0  00:00     600.00
  CC-storage               1.220       8     0     0         1.965      13       0  06:27     400.00
  XR-storage               0.798      86     0     0         0.926     100       0  03:29     379.95
  
  
  ***********************
  Outfall Loading Summary
  ***********************
  
  -----------------------------------------------------------
                         Flow       Avg       Max       Total
                         Freq      Flow      Flow      Volume
  Outfall Node           Pcnt       LPS       LPS    10^6 ltr
  -----------------------------------------------------------
  WSC                   99.99    524.86    848.25      12.859
  3                     70.70    209.85    597.65       2.734
  4                     26.31     49.84    175.19       0.238
  5                      0.00      0.00      0.00       0.000
  -----------------------------------------------------------
  System                49.25    784.55   1332.48      15.831
  
  
  ********************
  Link Flow Summary
  ********************
  
  -----------------------------------------------------------------------------
                                 Maximum  Time of Max   Maximum    Max/    Max/
                                  |Flow|   Occurrence   |Veloc|    Full    Full
  Link                 Type          LPS  days hr:min     m/sec    Flow   Depth
  -----------------------------------------------------------------------------
  WS02003066WSF200     CONDUIT    544.16     0  02:35      2.71    0.09    0.23
  WS02006287WS02006284 CONDUIT    230.75     0  02:17      1.68    0.11    0.23
  WS02006284WS02006280 CONDUIT    230.86     0  02:17      1.93    0.10    0.21
  WS02006280WS02006229 CONDUIT    230.87     0  02:17      3.10    0.05    0.15
  WS02006229WS02006228 CONDUIT    556.99     0  02:26      1.11    1.84    1.00
  WS02006256WS02006235 CONDUIT    177.52     0  00:01      2.73    1.88    1.00
  WS02006253WS02006251 CONDUIT     45.56     0  02:16      0.51    0.14    0.97
  WS02006252WS02006251 CONDUIT    400.27     0  02:20      3.19    1.47    1.00
  WS02006251WS02006249 CONDUIT    441.42     0  02:27      1.25    1.27    0.93
  WS02006249WS02006248 CONDUIT    381.43     0  02:21      1.25    2.09    0.89
  WS02006248WS02006247 CONDUIT    374.56     0  02:22      1.21    0.82    0.95
  WS02006247WS02006245 CONDUIT    367.53     0  02:22      1.18    2.91    0.99
  WS02006245WS02006243 CONDUIT    357.33     0  02:22      1.23    1.06    0.99
  WS02006243WS02006242 CONDUIT    341.80     0  02:23      1.04    0.73    1.00
  WS02006242WS02006240 CONDUIT    326.39     0  02:23      0.92    1.30    1.00
  WS02006240WS02006239 CONDUIT    314.44     0  07:01      0.89    0.99    1.00
  WS02006239WS02006238 CONDUIT    312.53     0  07:01      0.81    1.00    1.00
  WS02006238WS02006235 CONDUIT    312.53     0  07:02      1.32    0.70    1.00
  WS02006235WS02006234 CONDUIT    386.94     0  03:31      1.02    4.08    1.00
  WS02006234WS02006232 CONDUIT    386.72     0  03:31      1.17    0.78    1.00
  WS02006232WS02006231 CONDUIT    386.71     0  03:31      1.04    0.81    1.00
  WS02006231WS02006230 CONDUIT    386.34     0  03:32      1.33    5.86    0.98
  WS02006230WS02006229 CONDUIT    396.64     0  03:32      1.03    8.83    1.00
  WS02006228WS02006109 CONDUIT    556.99     0  02:26      1.11    2.43    1.00
  WS02006116WS02004401 CONDUIT    552.62     0  02:30      0.79    0.76    0.85
  WS02006115WS02006116 CONDUIT    555.40     0  02:30      0.90    0.71    0.77
  WS02006113WS02006111 CONDUIT    581.23     0  02:26      2.49    0.70    0.47
  WS02006112WS02006115 CONDUIT    561.84     0  02:26      0.79    0.33    0.88
  WS02006111WS02006112 CONDUIT    561.70     0  02:27      1.55    0.27    0.68
  WS02006110WS02006113 CONDUIT    558.04     0  02:25      1.31    0.51    0.79
  WS02006109WS02006110 CONDUIT    558.20     0  02:26      1.11    1.07    1.00
  WS02004411WS02004412 CONDUIT    544.53     0  02:34      0.93    0.77    0.70
  WS02004401WS02004402 CONDUIT    550.51     0  02:30      0.76    0.66    0.87
  WS02004413WS02003067 CONDUIT    543.98     0  02:35      1.12    0.23    0.59
  WS02004412WS02004413 CONDUIT    544.09     0  02:35      0.83    0.36    0.78
  WS02004410WS02004411 CONDUIT    545.12     0  02:34      0.95    0.74    0.69
  WS02004409WS02004410 CONDUIT    546.22     0  02:33      0.99    0.71    0.68
  WS02004407WS02004409 CONDUIT    548.40     0  02:33      1.50    0.19    0.48
  WS02004406WS02004407 CONDUIT    548.77     0  02:33      1.05    0.25    0.63
  WS02004405WS02004406 CONDUIT    550.29     0  02:32      0.71    1.09    0.96
  WS02004404WS02004405 CONDUIT    551.31     0  02:31      0.71    5.40    0.97
  WS02004403WS02004404 CONDUIT    550.59     0  02:31      0.72    0.40    0.94
  WS02004402WS02004403 CONDUIT    550.04     0  02:30      0.74    0.79    0.89
  WS02004139WS02001211 CONDUIT    369.79     0  07:20      0.80    0.47    0.57
  WS02004138WS02004139 CONDUIT    378.95     0  07:20      3.34    0.08    0.42
  WS02003067WS02003066 CONDUIT    544.11     0  02:35      1.21    0.17    0.42
  WS02001213WS02003059 CONDUIT    369.57     0  07:22      0.80    0.61    0.72
  WS02001212WS02001213 CONDUIT    369.61     0  07:22      1.25    0.57    0.42
  WS02001211WS02001212 CONDUIT    371.06     0  07:21      0.75    0.28    0.61
  WS02003072WS02003073 CONDUIT    846.44     0  02:39      1.67    1.83    0.46
  WS02003069WS02003072 CONDUIT    846.47     0  02:39      1.57    0.41    0.48
  WS02003060WS02003069 CONDUIT    846.25     0  02:38      1.82    0.33    0.43
  WS02003059WS02003060 CONDUIT    371.73     0  07:23      0.82    0.24    0.62
  HS02004901HS02004770 CONDUIT     11.74     0  02:14      0.05    0.04    0.33
  HS02004876HS02004881 CONDUIT     39.36     0  02:16      0.61    0.42    0.09
  HS02004870HS02004876 CONDUIT     31.28     0  02:17      0.43    0.02    0.10
  HS02004842HS02004848 CONDUIT      5.80     0  02:28      0.03    0.00    0.28
  HS02004837HS02004842 CONDUIT      6.02     0  02:29      0.41    0.00    0.29
  HS02004830HS02004837 CONDUIT     25.66     0  02:16      0.46    0.03    0.08
  HS02004824HS02004830 CONDUIT     25.81     0  02:17      0.50    0.03    0.07
  HS02004817HS02004824 CONDUIT     41.89     0  02:19      0.17    0.02    0.41
  HS02004770HS02004777 CONDUIT     59.81     0  02:13      0.25    0.11    0.35
  HS02004799HS02004480 CONDUIT    147.13     0  02:15      0.63    0.19    0.33
  HS02004792HS02004799 CONDUIT    134.51     0  02:14      0.73    0.08    0.27
  HS02004788HS02004792 CONDUIT     78.26     0  02:15      0.87    0.05    0.13
  HS02004785HS02004788 CONDUIT     59.25     0  02:15      0.55    0.45    0.16
  HS02004777HS02004785 CONDUIT     59.20     0  02:14      0.30    0.07    0.28
  HS02004480HS02004478 CONDUIT    173.62     0  02:16      1.01    0.73    0.25
  HS02004479HS02004480 CONDUIT     27.19     0  02:17      0.16    0.03    0.32
  HS02004862HS02004870 CONDUIT     22.83     0  02:17      0.49    0.02    0.07
  HS02004848HS02004852 CONDUIT      9.33     0  02:16      0.33    0.01    0.04
  HS02004856HS02004862 CONDUIT     15.56     0  02:17      0.36    0.02    0.06
  HS02004852HS02004856 CONDUIT      9.28     0  02:18      0.14    0.01    0.10
  HS02004802HS02004478 CONDUIT     58.82     0  02:20      0.32    0.05    0.27
  HS02004478WS02006287 CONDUIT    230.71     0  02:17      1.38    0.06    0.19
  HS02004817HS02004807 CONDUIT     43.15     0  02:21      0.12    0.03    0.53
  HS02004807HS02004802 CONDUIT     58.34     0  02:19      0.27    0.11    0.32
  YS02001759YS02001757 CONDUIT    219.30     0  02:50      0.28    0.16    1.00
  YS02001762YS02001759 CONDUIT    117.65     0  02:50      0.17    0.14    1.00
  YS02001765YS02001762 CONDUIT    118.51     0  02:37      0.23    0.11    1.00
  YS02001770YS02001767 CONDUIT    134.95     0  03:30      0.35    0.53    1.00
  YS02001774YS02001770 CONDUIT     66.15     0  03:31      0.14    0.04    1.00
  YS02001779YS02001774 CONDUIT     61.42     0  03:30      0.09    0.03    1.00
  YS02001649YS02001757 CONDUIT    329.90     0  03:08      0.42    0.20    1.00
  YS02001767YS02001765 CONDUIT    124.74     0  02:43      0.26    0.16    1.00
  YS02006561YS02001783 CONDUIT    349.05     0  02:47      1.84    0.18    0.40
  YS02001783YS02001784 CONDUIT    348.77     0  02:49      1.28    0.48    0.53
  YS02001784YS02001785 CONDUIT    349.80     0  02:49      1.36    0.81    0.51
  YS02001788YS02001790 CONDUIT    349.93     0  02:50      1.93    0.26    0.39
  YS02001790YS02001791 CONDUIT    350.05     0  02:50      2.23    0.38    0.35
  YS02001791YS02001793 CONDUIT    350.05     0  02:50      4.51    0.15    0.23
  YS02001910YS02001907 CONDUIT    108.07     0  03:01      0.49    0.06    0.76
  YS02001786YS02001788 CONDUIT    349.83     0  02:50      1.80    0.67    0.41
  YS02001915YS02001910 CONDUIT    107.93     0  02:57      0.44    0.05    0.55
  YS02001918YS02001915 CONDUIT     36.36     0  03:03      0.44    0.02    0.27
  YS02001923YS02001920 CONDUIT     33.52     0  03:01      0.47    0.02    0.15
  YS02001926YS02001923 CONDUIT     33.49     0  03:01      0.51    0.05    0.14
  YS02001929YS02001926 CONDUIT     33.49     0  03:01      0.54    0.02    0.13
  YS02001920YS02001918 CONDUIT     36.38     0  03:02      0.48    0.04    0.15
  YS02001629YS02163301 CONDUIT    116.47     0  03:17      0.15    0.14    1.00
  YS02001619YS02001622 CONDUIT     82.30     0  03:02      0.69    0.12    0.81
  YS02001622YS02001625 CONDUIT     91.76     0  03:21      0.27    0.05    0.91
  YS02001625YS02001629 CONDUIT    100.81     0  03:30      0.27    0.05    0.90
  YS02163301YS02001633 CONDUIT     95.89     0  03:26      0.12    0.09    1.00
  YS02163601YS02164001 CONDUIT    155.79     0  02:46      0.20    0.14    1.00
  YS02164001YS02001641 CONDUIT    154.89     0  03:16      0.20    0.21    1.00
  YS02001641YS02001644 CONDUIT    157.11     0  03:17      0.20    0.51    1.00
  YS02001647YS02001649 CONDUIT    245.30     0  03:10      0.32    0.13    1.00
  YS02006553YS02006556 CONDUIT    237.80     0  02:49      0.34    0.20    0.84
  YS02006556YS02006558 CONDUIT    237.90     0  02:53      0.33    0.19    0.87
  YSB6556YSB1171       CONDUIT     14.69     0  02:18      0.06    0.02    0.59
  YS02001907YS02006553 CONDUIT    237.80     0  02:48      0.28    0.28    0.96
  YS02006558YS02006561 CONDUIT    355.42     0  02:47      2.41    0.79    0.52
  YS02001633YS02163601 CONDUIT    156.70     0  02:46      0.20    0.16    1.00
  YS02001644YS02001647 CONDUIT    236.13     0  03:17      0.31    0.14    1.00
  YS02001745YS02001748 CONDUIT    109.86     0  05:06      1.43    0.04    0.39
  YS02001748YS02001751 CONDUIT    135.59     0  03:50      1.12    0.07    0.75
  YS02001751YS02001754 CONDUIT     97.19     0  03:18      1.00    0.05    0.93
  YS02001754YS02001757 CONDUIT    110.91     0  03:24      0.33    0.04    1.00
  YS02001882YS02001884 CONDUIT      4.64     0  02:07      0.06    0.01    0.49
  YS02001884YS02001887 CONDUIT     13.23     0  02:07      0.07    0.02    0.58
  YS02001890YS02001895 CONDUIT    131.92     0  02:41      0.30    0.06    0.55
  YS02001895YS02001898 CONDUIT    132.00     0  02:48      0.51    0.23    0.41
  YS02001898YS02001901 CONDUIT    132.23     0  02:48      0.35    0.09    0.49
  YS02001901YS02001904 CONDUIT    131.95     0  02:48      0.30    0.20    0.54
  YS02001904YS02001907 CONDUIT    132.61     0  02:47      0.22    0.05    0.70
  YS02001887YS02001890 CONDUIT    132.47     0  02:41      0.25    0.23    0.64
  YS02001652YS02001649 CONDUIT    145.73     0  03:12      0.35    0.07    1.00
  YS02001655YS02001652 CONDUIT    121.75     0  02:42      1.08    0.06    0.95
  YS02001658YS02001655 CONDUIT    148.30     0  03:12      1.29    0.06    0.73
  YS02001661YS02001658 CONDUIT    120.83     0  05:03      1.49    0.05    0.41
  YS02001664YS02001661 CONDUIT     94.01     0  02:41      1.16    0.03    0.19
  YSB1154YSB6556       CONDUIT     14.37     0  02:15      0.19    0.03    0.48
  YSB1174YSB1171       CONDUIT     13.47     0  02:11      0.06    0.02    0.60
  YSB1171HS02004479    CONDUIT     26.95     0  02:16      0.54    0.02    0.46
  HS02004881HS02006253 CONDUIT     44.06     0  02:16      1.75    0.01    0.27
  YS02001793JiankangQianchi CONDUIT    350.05     0  02:50     13.63    0.03    0.50
  YS02001757CaochengTiaoxuchi CONDUIT    579.62     0  02:56      1.31    0.25    0.85
  WSF200WS02003060     CONDUIT    544.45     0  02:35      1.89    0.12    0.33
  1                    CONDUIT    848.25     0  02:40      3.18    0.30    0.37
  2                    CONDUIT    175.19     0  02:27      5.65    0.42    0.45
  3                    CONDUIT    597.65     0  00:00     10.05    0.95    0.86
  4                    CONDUIT      0.00     0  00:00      0.00    0.00    0.00
  CC-Pump-1            PUMP       200.00     0  02:20              1.00
  CC-Pump-2            PUMP       200.00     0  02:20              1.00
  JK-Pump-1            PUMP       300.00     0  00:00              1.00
  JK-Pump-2            PUMP       300.00     0  00:00              1.00
  XR-Pump-1            PUMP        95.00     0  00:00              1.00
  XR-Pump-2            PUMP        95.00     0  00:00              1.00
  XR-Pump-3            PUMP        95.00     0  00:00              1.00
  XR-Pump-4            PUMP        95.00     0  00:30              1.00
  
  
  ***************************
  Flow Classification Summary
  ***************************
  
  -------------------------------------------------------------------------------------
                      Adjusted    ---------- Fraction of Time in Flow Class ---------- 
                       /Actual         Up    Down  Sub   Sup   Up    Down  Norm  Inlet 
  Conduit               Length    Dry  Dry   Dry   Crit  Crit  Crit  Crit  Ltd   Ctrl  
  -------------------------------------------------------------------------------------
  WS02003066WSF200        1.00   0.07  0.00  0.00  0.00  0.93  0.00  0.00  0.65  0.00
  WS02006287WS02006284    1.00   0.03  0.02  0.00  0.65  0.30  0.00  0.00  0.77  0.00
  WS02006284WS02006280    1.00   0.04  0.00  0.00  0.00  0.00  0.00  0.96  0.00  0.00
  WS02006280WS02006229    1.00   0.04  0.00  0.00  0.00  0.00  0.00  0.96  0.00  0.00
  WS02006229WS02006228    1.00   0.00  0.00  0.00  0.98  0.00  0.00  0.02  0.00  0.00
  WS02006256WS02006235    1.00   0.00  0.00  0.00  0.99  0.01  0.00  0.00  0.00  0.00
  WS02006253WS02006251    1.00   0.02  0.01  0.00  0.96  0.00  0.00  0.00  0.00  0.00
  WS02006252WS02006251    1.00   0.08  0.00  0.00  0.00  0.00  0.92  0.00  0.00  0.00
  WS02006251WS02006249    1.00   0.00  0.00  0.00  1.00  0.00  0.00  0.00  0.30  0.00
  WS02006249WS02006248    1.00   0.00  0.02  0.00  0.86  0.00  0.12  0.00  0.00  0.00
  WS02006248WS02006247    1.00   0.02  0.00  0.00  0.97  0.00  0.00  0.01  0.22  0.00
  WS02006247WS02006245    1.00   0.02  0.00  0.00  0.96  0.00  0.00  0.02  0.00  0.00
  WS02006245WS02006243    1.00   0.02  0.00  0.00  0.94  0.00  0.00  0.05  0.02  0.00
  WS02006243WS02006242    1.00   0.01  0.00  0.00  0.99  0.00  0.00  0.00  0.27  0.00
  WS02006242WS02006240    1.00   0.01  0.00  0.00  0.99  0.00  0.00  0.00  0.00  0.00
  WS02006240WS02006239    1.00   0.00  0.00  0.00  0.95  0.00  0.00  0.05  0.02  0.00
  WS02006239WS02006238    1.00   0.00  0.00  0.00  1.00  0.00  0.00  0.00  0.02  0.00
  WS02006238WS02006235    1.00   0.00  0.00  0.00  1.00  0.00  0.00  0.00  0.00  0.00
  WS02006235WS02006234    1.00   0.00  0.00  0.00  0.95  0.00  0.05  0.00  0.00  0.00
  WS02006234WS02006232    1.00   0.00  0.00  0.00  1.00  0.00  0.00  0.00  0.11  0.00
  WS02006232WS02006231    1.00   0.00  0.00  0.00  0.99  0.00  0.01  0.00  0.00  0.00
  WS02006231WS02006230    1.00   0.00  0.00  0.00  0.43  0.00  0.57  0.00  0.00  0.00
  WS02006230WS02006229    1.00   0.00  0.00  0.00  0.98  0.00  0.00  0.02  0.01  0.00
  WS02006228WS02006109    1.00   0.00  0.00  0.00  1.00  0.00  0.00  0.00  0.01  0.00
  WS02006116WS02004401    1.00   0.02  0.00  0.00  0.98  0.00  0.00  0.00  0.00  0.00
  WS02006115WS02006116    1.00   0.02  0.00  0.00  0.97  0.00  0.00  0.01  0.01  0.00
  WS02006113WS02006111    1.00   0.02  0.00  0.00  0.00  0.98  0.00  0.00  0.13  0.00
  WS02006112WS02006115    1.00   0.02  0.00  0.00  0.98  0.00  0.00  0.00  0.00  0.00
  WS02006111WS02006112    1.00   0.02  0.00  0.00  0.98  0.00  0.00  0.00  0.98  0.00
  WS02006110WS02006113    1.00   0.02  0.00  0.00  0.98  0.00  0.00  0.00  0.00  0.00
  WS02006109WS02006110    1.00   0.00  0.02  0.00  0.98  0.00  0.00  0.00  0.00  0.00
  WS02004411WS02004412    1.00   0.05  0.00  0.00  0.95  0.00  0.00  0.00  0.00  0.00
  WS02004401WS02004402    1.00   0.02  0.00  0.00  0.98  0.00  0.00  0.00  0.00  0.00
  WS02004413WS02003067    1.00   0.05  0.01  0.00  0.00  0.00  0.93  0.00  0.00  0.00
  WS02004412WS02004413    1.00   0.05  0.00  0.00  0.95  0.00  0.00  0.00  0.03  0.00
  WS02004410WS02004411    1.00   0.05  0.00  0.00  0.95  0.00  0.00  0.00  0.01  0.00
  WS02004409WS02004410    1.00   0.05  0.00  0.00  0.95  0.00  0.00  0.00  0.00  0.00
  WS02004407WS02004409    1.00   0.05  0.00  0.00  0.95  0.00  0.00  0.00  0.80  0.00
  WS02004406WS02004407    1.00   0.00  0.05  0.00  0.95  0.00  0.00  0.00  0.00  0.00
  WS02004405WS02004406    1.00   0.00  0.00  0.00  1.00  0.00  0.00  0.00  0.02  0.00
  WS02004404WS02004405    1.00   0.00  0.00  0.00  1.00  0.00  0.00  0.00  0.00  0.00
  WS02004403WS02004404    1.00   0.00  0.02  0.00  0.98  0.00  0.00  0.00  0.02  0.00
  WS02004402WS02004403    1.00   0.02  0.00  0.00  0.98  0.00  0.00  0.00  0.00  0.00
  WS02004139WS02001211    1.00   0.00  0.00  0.00  0.99  0.00  0.01  0.00  0.00  0.00
  WS02004138WS02004139    1.00   0.00  0.00  0.00  0.99  0.01  0.00  0.00  1.00  0.00
  WS02003067WS02003066    1.00   0.07  0.01  0.00  0.93  0.00  0.00  0.00  0.00  0.00
  WS02001213WS02003059    1.00   0.00  0.00  0.00  0.99  0.00  0.00  0.00  0.00  0.00
  WS02001212WS02001213    1.00   0.01  0.00  0.00  0.77  0.00  0.22  0.00  0.00  0.00
  WS02001211WS02001212    1.00   0.00  0.01  0.00  0.99  0.00  0.00  0.00  0.00  0.00
  WS02003072WS02003073    1.00   0.00  0.00  0.00  0.00  0.00  0.00  1.00  0.00  0.00
  WS02003069WS02003072    1.00   0.00  0.00  0.00  0.99  0.01  0.00  0.00  0.30  0.00
  WS02003060WS02003069    1.00   0.00  0.00  0.00  0.98  0.02  0.00  0.00  0.15  0.00
  WS02003059WS02003060    1.00   0.00  0.00  0.00  0.99  0.01  0.00  0.00  0.01  0.00
  HS02004901HS02004770    1.00   0.04  0.00  0.00  0.96  0.00  0.00  0.00  0.03  0.00
  HS02004876HS02004881    1.00   0.02  0.00  0.00  0.98  0.00  0.00  0.00  0.00  0.00
  HS02004870HS02004876    1.00   0.01  0.00  0.00  0.99  0.00  0.00  0.00  0.95  0.00
  HS02004842HS02004848    1.00   0.00  0.04  0.00  0.96  0.00  0.00  0.00  0.69  0.00
  HS02004837HS02004842    1.00   0.00  0.00  0.00  0.99  0.01  0.00  0.00  0.11  0.00
  HS02004830HS02004837    1.00   0.00  0.00  0.00  1.00  0.00  0.00  0.00  0.99  0.00
  HS02004824HS02004830    1.00   0.00  0.00  0.00  1.00  0.00  0.00  0.00  0.00  0.00
  HS02004817HS02004824    1.00   0.00  0.00  0.00  1.00  0.00  0.00  0.00  1.00  0.00
  HS02004770HS02004777    1.00   0.00  0.04  0.00  0.96  0.00  0.00  0.00  0.07  0.00
  HS02004799HS02004480    1.00   0.00  0.02  0.00  0.95  0.00  0.03  0.00  0.00  0.00
  HS02004792HS02004799    1.00   0.00  0.00  0.00  0.99  0.01  0.00  0.00  0.98  0.00
  HS02004788HS02004792    1.00   0.00  0.00  0.00  0.98  0.02  0.00  0.00  0.98  0.00
  HS02004785HS02004788    1.00   0.00  0.00  0.00  1.00  0.00  0.00  0.00  0.00  0.00
  HS02004777HS02004785    1.00   0.00  0.00  0.00  1.00  0.00  0.00  0.00  0.21  0.00
  HS02004480HS02004478    1.00   0.04  0.00  0.00  0.71  0.00  0.00  0.25  0.00  0.00
  HS02004479HS02004480    1.00   0.02  0.00  0.00  0.98  0.00  0.00  0.00  0.16  0.00
  HS02004862HS02004870    1.00   0.00  0.00  0.00  1.00  0.00  0.00  0.00  0.05  0.00
  HS02004848HS02004852    1.00   0.04  0.00  0.00  0.96  0.00  0.00  0.00  0.71  0.00
  HS02004856HS02004862    1.00   0.00  0.06  0.00  0.94  0.00  0.00  0.00  0.74  0.00
  HS02004852HS02004856    1.00   0.04  0.01  0.00  0.95  0.00  0.00  0.00  0.83  0.00
  HS02004802HS02004478    1.00   0.04  0.01  0.00  0.95  0.00  0.00  0.00  0.01  0.00
  HS02004478WS02006287    1.00   0.05  0.00  0.00  0.86  0.09  0.00  0.00  0.76  0.00
  HS02004817HS02004807    1.00   0.00  0.04  0.00  0.96  0.00  0.00  0.00  0.00  0.00
  HS02004807HS02004802    1.00   0.04  0.00  0.00  0.96  0.00  0.00  0.00  0.01  0.00
  YS02001759YS02001757    1.00   0.00  0.00  0.00  1.00  0.00  0.00  0.00  0.17  0.00
  YS02001762YS02001759    1.00   0.00  0.00  0.00  1.00  0.00  0.00  0.00  0.05  0.00
  YS02001765YS02001762    1.00   0.00  0.00  0.00  1.00  0.00  0.00  0.00  0.22  0.00
  YS02001770YS02001767    1.00   0.00  0.00  0.00  1.00  0.00  0.00  0.00  0.00  0.00
  YS02001774YS02001770    1.00   0.00  0.05  0.00  0.95  0.00  0.00  0.00  0.06  0.00
  YS02001779YS02001774    1.00   0.00  0.00  0.00  1.00  0.00  0.00  0.00  0.26  0.00
  YS02001649YS02001757    1.00   0.00  0.00  0.00  1.00  0.00  0.00  0.00  0.19  0.00
  YS02001767YS02001765    1.00   0.00  0.00  0.00  1.00  0.00  0.00  0.00  0.01  0.00
  YS02006561YS02001783    1.00   0.06  0.00  0.00  0.00  0.94  0.00  0.00  0.73  0.00
  YS02001783YS02001784    1.00   0.00  0.06  0.00  0.94  0.00  0.00  0.00  0.00  0.00
  YS02001784YS02001785    1.00   0.00  0.00  0.00  1.00  0.00  0.00  0.00  0.25  0.00
  YS02001788YS02001790    1.00   0.00  0.00  0.00  0.07  0.93  0.00  0.00  0.76  0.00
  YS02001790YS02001791    1.00   0.00  0.00  0.00  0.02  0.98  0.00  0.00  0.56  0.00
  YS02001791YS02001793    1.00   0.00  0.00  0.00  0.00  1.00  0.00  0.00  0.00  0.00
  YS02001910YS02001907    1.00   0.00  0.00  0.00  0.98  0.00  0.00  0.02  0.13  0.00
  YS02001786YS02001788    1.00   0.00  0.00  0.00  0.07  0.93  0.00  0.00  0.00  0.00
  YS02001915YS02001910    1.00   0.00  0.00  0.00  1.00  0.00  0.00  0.00  0.24  0.00
  YS02001918YS02001915    1.00   0.00  0.01  0.00  0.99  0.00  0.00  0.00  0.81  0.00
  YS02001923YS02001920    1.00   0.00  0.00  0.00  1.00  0.00  0.00  0.00  1.00  0.00
  YS02001926YS02001923    1.00   0.00  0.03  0.00  0.00  0.00  0.97  0.00  0.00  0.00
  YS02001929YS02001926    1.00   0.00  0.04  0.00  0.96  0.00  0.00  0.00  0.87  0.00
  YS02001920YS02001918    1.00   0.00  0.01  0.00  0.99  0.00  0.00  0.00  0.00  0.00
  YS02001629YS02163301    1.00   0.06  0.00  0.00  0.94  0.00  0.00  0.00  0.00  0.00
  YS02001619YS02001622    1.00   0.04  0.00  0.00  0.96  0.00  0.00  0.00  0.00  0.00
  YS02001622YS02001625    1.00   0.04  0.00  0.00  0.96  0.00  0.00  0.00  0.13  0.00
  YS02001625YS02001629    1.00   0.04  0.03  0.00  0.92  0.00  0.02  0.00  0.00  0.00
  YS02163301YS02001633    1.00   0.00  0.06  0.00  0.94  0.00  0.00  0.00  0.00  0.00
  YS02163601YS02164001    1.00   0.00  0.03  0.00  0.97  0.00  0.00  0.00  0.00  0.00
  YS02164001YS02001641    1.00   0.01  0.02  0.00  0.97  0.00  0.00  0.00  0.07  0.00
  YS02001641YS02001644    1.00   0.00  0.01  0.00  0.99  0.00  0.00  0.00  0.00  0.00
  YS02001647YS02001649    1.00   0.00  0.06  0.00  0.94  0.00  0.00  0.00  0.01  0.00
  YS02006553YS02006556    1.00   0.02  0.00  0.00  0.98  0.00  0.00  0.00  0.03  0.00
  YS02006556YS02006558    1.00   0.00  0.01  0.00  0.99  0.00  0.00  0.00  0.00  0.00
  YSB6556YSB1171          1.00   0.02  0.02  0.00  0.96  0.00  0.00  0.00  0.00  0.00
  YS02001907YS02006553    1.00   0.00  0.02  0.00  0.98  0.00  0.00  0.00  0.00  0.00
  YS02006558YS02006561    1.00   0.06  0.00  0.00  0.00  0.94  0.00  0.00  0.69  0.00
  YS02001633YS02163601    1.00   0.00  0.01  0.00  0.99  0.00  0.00  0.00  0.20  0.00
  YS02001644YS02001647    1.00   0.00  0.06  0.00  0.94  0.00  0.00  0.00  0.00  0.00
  YS02001745YS02001748    1.00   0.00  0.00  0.00  0.87  0.02  0.00  0.12  0.31  0.00
  YS02001748YS02001751    1.00   0.00  0.00  0.00  0.97  0.03  0.00  0.00  0.24  0.00
  YS02001751YS02001754    1.00   0.00  0.00  0.00  0.93  0.00  0.00  0.07  0.02  0.00
  YS02001754YS02001757    1.00   0.00  0.00  0.00  0.99  0.01  0.00  0.00  0.26  0.00
  YS02001882YS02001884    1.00   0.05  0.00  0.00  0.94  0.00  0.00  0.00  0.00  0.00
  YS02001884YS02001887    1.00   0.03  0.01  0.00  0.96  0.00  0.00  0.00  0.00  0.00
  YS02001890YS02001895    1.00   0.00  0.05  0.00  0.94  0.00  0.00  0.00  0.00  0.00
  YS02001895YS02001898    1.00   0.06  0.00  0.00  0.93  0.00  0.01  0.00  0.00  0.00
  YS02001898YS02001901    1.00   0.06  0.00  0.00  0.94  0.00  0.00  0.00  0.02  0.00
  YS02001901YS02001904    1.00   0.06  0.00  0.00  0.94  0.00  0.00  0.00  0.00  0.00
  YS02001904YS02001907    1.00   0.00  0.05  0.00  0.94  0.00  0.00  0.00  0.00  0.00
  YS02001887YS02001890    1.00   0.00  0.00  0.00  0.98  0.00  0.02  0.00  0.00  0.00
  YS02001652YS02001649    1.00   0.00  0.00  0.00  1.00  0.00  0.00  0.00  0.26  0.00
  YS02001655YS02001652    1.00   0.00  0.00  0.00  0.93  0.00  0.00  0.07  0.02  0.00
  YS02001658YS02001655    1.00   0.00  0.05  0.00  0.92  0.03  0.00  0.00  0.10  0.00
  YS02001661YS02001658    1.00   0.05  0.00  0.00  0.86  0.09  0.00  0.00  0.26  0.00
  YS02001664YS02001661    1.00   0.04  0.00  0.00  0.70  0.26  0.00  0.00  0.86  0.00
  YSB1154YSB6556          1.00   0.04  0.00  0.00  0.96  0.00  0.00  0.00  0.02  0.00
  YSB1174YSB1171          1.00   0.02  0.01  0.00  0.97  0.00  0.00  0.00  0.00  0.00
  YSB1171HS02004479       1.00   0.02  0.00  0.00  0.97  0.00  0.00  0.00  0.13  0.00
  HS02004881HS02006253    1.00   0.03  0.00  0.00  0.73  0.01  0.00  0.24  0.52  0.00
  YS02001793JiankangQianchi    1.00   0.00  0.00  0.00  0.05  0.95  0.00  0.00  0.14  0.00
  YS02001757CaochengTiaoxuchi    1.00   0.00  0.08  0.00  0.92  0.00  0.00  0.00  0.00  0.00
  WSF200WS02003060        1.00   0.00  0.07  0.00  0.63  0.30  0.00  0.00  0.27  0.00
  1                       1.00   0.00  0.00  0.00  0.00  1.00  0.00  0.00  0.47  0.00
  2                       1.00   0.73  0.00  0.00  0.00  0.27  0.00  0.00  0.08  0.00
  3                       1.00   0.29  0.00  0.00  0.00  0.71  0.00  0.00  0.15  0.00
  4                       1.00   1.00  0.00  0.00  0.00  0.00  0.00  0.00  0.00  0.00
  
  
  *************************
  Conduit Surcharge Summary
  *************************
  
  ----------------------------------------------------------------------------
                                                           Hours        Hours 
                         --------- Hours Full --------   Above Full   Capacity
  Conduit                Both Ends  Upstream  Dnstream   Normal Flow   Limited
  ----------------------------------------------------------------------------
  WS02006229WS02006228        1.39      1.51      1.39      2.93         1.39
  WS02006256WS02006235        5.66      5.66      6.89      2.84         0.01
  WS02006252WS02006251        0.60      0.60      1.40      1.19         0.01
  WS02006251WS02006249        0.01      0.01      0.01      0.64         0.01
  WS02006249WS02006248        0.01      0.01      0.01      3.58         0.01
  WS02006247WS02006245        0.01      0.02      0.01      4.12         0.01
  WS02006245WS02006243        0.01      0.01      0.01      0.05         0.01
  WS02006243WS02006242        0.11      0.11      0.58      0.01         0.01
  WS02006242WS02006240        0.18      0.18      0.96      1.43         0.01
  WS02006240WS02006239        0.28      0.28      0.40      0.01         0.01
  WS02006239WS02006238        0.83      0.83      1.01      0.01         0.01
  WS02006238WS02006235        0.86      0.86      1.41      0.01         0.01
  WS02006235WS02006234        0.24      0.24      0.73      5.68         0.01
  WS02006234WS02006232        0.45      0.45      1.60      0.01         0.01
  WS02006232WS02006231        0.04      0.04      1.60      0.01         0.01
  WS02006231WS02006230        0.01      0.01      0.11      5.65         0.01
  WS02006230WS02006229        2.06      2.68      2.06      5.71         2.06
  WS02006228WS02006109        1.44      1.85      1.44      4.36         1.44
  WS02006112WS02006115        0.01      0.01      0.34      0.01         0.01
  WS02006111WS02006112        0.01      0.01      3.00      0.01         0.01
  WS02006110WS02006113        0.01      0.01      1.68      0.01         0.01
  WS02006109WS02006110        0.19      0.19      1.86      0.19         0.01
  WS02004405WS02004406        0.01      0.01      0.01      0.26         0.01
  WS02004404WS02004405        0.01      0.01      0.01      5.63         0.01
  WS02003072WS02003073        0.01      0.01      0.01      4.36         0.01
  YS02001759YS02001757        5.25      5.25      5.38      0.01         0.01
  YS02001762YS02001759        5.18      5.18      5.25      0.01         0.01
  YS02001765YS02001762        4.76      4.76      5.18      0.01         0.01
  YS02001770YS02001767        3.93      3.93      4.03      0.01         0.75
  YS02001774YS02001770        3.84      3.84      5.14      0.01         0.01
  YS02001779YS02001774        0.65      0.65      5.14      0.01         0.01
  YS02001649YS02001757        5.21      5.21      5.38      0.01         0.01
  YS02001767YS02001765        4.03      4.03      4.76      0.01         0.02
  YS02001629YS02163301        3.78      3.78      3.87      0.01         0.01
  YS02001622YS02001625        0.01      0.01      2.94      0.01         0.01
  YS02001625YS02001629        0.01      0.01      2.94      0.01         0.01
  YS02163301YS02001633        3.87      3.87      4.87      0.01         0.01
  YS02163601YS02164001        4.75      4.75      5.21      0.01         0.01
  YS02164001YS02001641        4.75      4.75      5.11      0.01         0.01
  YS02001641YS02001644        5.11      5.11      5.13      0.01         0.44
  YS02001647YS02001649        2.77      2.77      5.21      0.01         0.01
  YS02001633YS02163601        4.43      4.43      5.21      0.01         0.01
  YS02001644YS02001647        2.77      2.77      5.13      0.01         0.01
  YS02001751YS02001754        0.01      0.01      1.55      0.01         0.01
  YS02001754YS02001757        2.81      2.81      5.38      0.01         0.01
  YS02001652YS02001649        3.12      3.12      5.21      0.01         0.01
  YS02001655YS02001652        0.01      0.01      2.35      0.01         0.01
  YS02001793JiankangQianchi        0.01      0.01      0.04      0.01         0.01
  YS02001757CaochengTiaoxuchi        0.01      0.01      5.38      0.01         0.01
  3                           0.01      0.01      0.01      0.01         0.01
  
  
  ***************
  Pumping Summary
  ***************
  
  ---------------------------------------------------------------------------------------------------------
                                                  Min       Avg       Max     Total     Power    % Time Off
                        Percent   Number of      Flow      Flow      Flow    Volume     Usage    Pump Curve
  Pump                 Utilized   Start-Ups       LPS       LPS       LPS  10^6 ltr     Kw-hr    Low   High
  ---------------------------------------------------------------------------------------------------------
  CC-Pump-1               58.26           5      0.00    126.26    200.00     1.998      6.32    0.0   23.6
  CC-Pump-2               47.62           6      0.00    140.35    200.00     1.818      6.20    0.0   28.8
  JK-Pump-1               68.08           5      0.00    156.40    300.00     2.250     43.65    0.0    0.0
  JK-Pump-2               78.71           6      0.00    154.03    300.00     2.412     47.07    0.0    0.0
  XR-Pump-1               72.34           9      0.00     59.26     95.00     1.226     12.64    0.0    0.0
  XR-Pump-2               80.85           8      0.00     66.98     95.00     1.511     14.78    0.0    0.0
  XR-Pump-3               95.73           6      0.00     70.25     95.00     1.881     17.12    0.0    0.0
  XR-Pump-4               68.08           9      0.00     67.28     95.00     1.311     12.09    0.0    0.0
  

  Analysis begun on:  Tue Dec 21 12:03:24 2021
  Analysis ended on:  Tue Dec 21 12:03:27 2021
  Total elapsed time: 00:00:03