
  EPA STORM WATER MANAGEMENT MODEL - VERSION 5.1 (Build 5.3.0.dev0)
  --------------------------------------------------------------

  WARNING 04: minimum elevation drop used for Conduit WS02004404WS02004405
  WARNING 03: negative offset ignored for Link YS02001904YS02001907
  
  *********************************************************
  NOTE: The summary statistics displayed in this report are
  based on results found at every computational time step,  
  not just on results from each reporting time step.
  *********************************************************
  
  ****************
  Analysis Options
  ****************
  Flow Units ............... LPS
  Process Models:
    Rainfall/Runoff ........ YES
    RDII ................... NO
    Snowmelt ............... NO
    Groundwater ............ NO
    Flow Routing ........... YES
    Ponding Allowed ........ NO
    Water Quality .......... NO
  Infiltration Method ...... HORTON
  Flow Routing Method ...... DYNWAVE
  Surcharge Method ......... EXTRAN
  Starting Date ............ 08/28/2015 08:00:00
  Ending Date .............. 08/28/2015 15:50:00
  Antecedent Dry Days ...... 8.0
  Report Time Step ......... 00:01:00
  Wet Time Step ............ 00:01:00
  Dry Time Step ............ 00:01:00
  Routing Time Step ........ 5.00 sec
  Variable Time Step ....... YES
  Maximum Trials ........... 8
  Number of Threads ........ 4
  Head Tolerance ........... 0.001500 m
  
  
  **************************        Volume         Depth
  Runoff Quantity Continuity     hectare-m            mm
  **************************     ---------       -------
  Total Precipitation ......         1.933         4.232
  Evaporation Loss .........         0.000         0.000
  Infiltration Loss ........         0.477         1.045
  Surface Runoff ...........         0.652         1.428
  Final Storage ............         0.804         1.760
  Continuity Error (%) .....        -0.017
  
  
  **************************        Volume        Volume
  Flow Routing Continuity        hectare-m      10^6 ltr
  **************************     ---------     ---------
  Dry Weather Inflow .......         0.616         6.165
  Wet Weather Inflow .......         0.652         6.516
  Groundwater Inflow .......         0.000         0.000
  RDII Inflow ..............         0.000         0.000
  External Inflow ..........         0.102         1.024
  External Outflow .........         1.359        13.589
  Flooding Loss ............         0.007         0.073
  Evaporation Loss .........         0.000         0.000
  Exfiltration Loss ........         0.000         0.000
  Initial Stored Volume ....         0.076         0.761
  Final Stored Volume ......         0.219         2.193
  Continuity Error (%) .....        -9.608
  
  
  *************************
  Highest Continuity Errors
  *************************
  Node JK-storage (-53.47%)
  Node HS02004842 (36.45%)
  Node YS02001884 (30.77%)
  Node YS02001774 (14.46%)
  Node YSB1171 (10.43%)
  
  
  ***************************
  Time-Step Critical Elements
  ***************************
  Link WS02006252WS02006251 (64.71%)
  Link 3 (25.23%)
  Link WS02006238WS02006235 (3.21%)
  Link WS02006280WS02006229 (2.36%)
  
  
  ********************************
  Highest Flow Instability Indexes
  ********************************
  Link WS02006113WS02006111 (49)
  Link WS02006111WS02006112 (21)
  Link YS02001754YS02001757 (3)
  Link YS02001751YS02001754 (3)
  Link YS02001762YS02001759 (3)
  
  
  *************************
  Routing Time Step Summary
  *************************
  Minimum Time Step           :     0.50 sec
  Average Time Step           :     0.98 sec
  Maximum Time Step           :     5.00 sec
  Percent in Steady State     :    -0.00
  Average Iterations per Step :     2.01
  Percent Not Converging      :     0.05
  
  
  ***************************
  Subcatchment Runoff Summary
  ***************************
  
  ------------------------------------------------------------------------------------------------------------------------------
                            Total      Total      Total      Total     Imperv       Perv      Total       Total     Peak  Runoff
                           Precip      Runon       Evap      Infil     Runoff     Runoff     Runoff      Runoff   Runoff   Coeff
  Subcatchment                 mm         mm         mm         mm         mm         mm         mm    10^6 ltr      LPS
  ------------------------------------------------------------------------------------------------------------------------------
  sub0                       4.23       0.00       0.00       0.30       2.67       0.00       2.67        0.00     0.79   0.631
  sub1                       4.23       0.00       0.00       0.47       2.51       0.00       2.51        0.02     4.06   0.594
  sub2                       4.23       0.00       0.00       1.57       1.76       0.00       1.76        0.02     3.58   0.416
  sub3                       4.23       0.00       0.00       1.57       1.73       0.00       1.73        0.04     7.33   0.409
  sub4                       4.23       0.00       0.00       0.47       2.39       0.00       2.39        0.05     8.19   0.564
  sub5                       4.23       0.00       0.00       0.30       2.63       0.00       2.63        0.03     7.22   0.621
  sub7                       4.23       0.00       0.00       0.38       2.60       0.00       2.60        0.01     2.57   0.614
  sub8                       4.23       0.00       0.00       0.38       2.59       0.00       2.59        0.02     4.52   0.612
  sub9                       4.23       0.00       0.00       0.38       2.59       0.00       2.59        0.01     3.34   0.611
  sub10                      4.23       0.00       0.00       0.34       2.60       0.00       2.60        0.03     7.22   0.615
  sub11                      4.23       0.00       0.00       0.34       2.62       0.00       2.62        0.03     8.50   0.619
  sub12                      4.23       0.00       0.00       0.55       2.49       0.00       2.49        0.02     7.25   0.589
  sub14                      4.23       0.00       0.00       0.38       2.58       0.00       2.58        0.02     6.53   0.611
  sub15                      4.23       0.00       0.00       1.27       1.99       0.00       1.99        0.03     8.86   0.469
  sub16                      4.23       0.00       0.00       1.40       1.92       0.00       1.92        0.02     6.36   0.453
  sub17                      4.23       0.00       0.00       1.35       1.94       0.00       1.94        0.02     5.13   0.459
  sub22                      4.23       0.00       0.00       1.82       1.62       0.00       1.62        0.10    29.11   0.384
  sub23                      4.23       0.00       0.00       1.57       1.80       0.00       1.80        0.09    24.81   0.425
  sub60                      4.23       0.00       0.00       0.51       1.55       0.00       1.55        0.47    39.92   0.367
  sub61                      4.23       0.00       0.00       0.72       1.71       0.00       1.71        0.53    50.94   0.405
  sub62                      4.23       0.00       0.00       0.34       1.82       0.00       1.82        0.56    51.91   0.431
  sub63                      4.23       0.00       0.00       1.23       1.55       0.00       1.55        0.47    47.72   0.365
  sub64                      4.23       0.00       0.00       0.63       1.48       0.00       1.48        0.45    37.84   0.350
  sub65                      4.23       0.00       0.00       0.55       1.50       0.00       1.50        0.46    38.31   0.354
  sub66                      4.23       0.00       0.00       1.23       1.31       0.00       1.31        0.40    34.96   0.309
  sub67                      4.23       0.00       0.00       0.34       2.06       0.00       2.06        0.64    67.22   0.486
  sub68                      4.23       0.00       0.00       0.59       1.84       0.00       1.84        0.57    56.45   0.434
  sub69                      4.23       0.00       0.00       0.63       2.04       0.00       2.04        0.48    56.62   0.482
  sub70                      4.23       2.08       0.00       2.15       2.35       0.00       2.35        0.54    42.00   0.371
  sub71                      4.23       0.00       0.00       0.34       1.72       0.00       1.72        0.41    36.02   0.407
  sub72                      4.23       0.00       0.00       0.30       1.14       0.00       1.14        0.23    16.24   0.270
  sub73                      4.23       2.28       0.00       2.21       2.28       0.00       2.28        0.54    35.81   0.350
  sub74                      4.23       0.00       0.00       3.17       0.62       0.00       0.62        0.25    31.71   0.147
  
  
  ******************
  Node Depth Summary
  ******************
  
  ---------------------------------------------------------------------------------
                                 Average  Maximum  Maximum  Time of Max    Reported
                                   Depth    Depth      HGL   Occurrence   Max Depth
  Node                 Type       Meters   Meters   Meters  days hr:min      Meters
  ---------------------------------------------------------------------------------
  WS02001211           JUNCTION     0.64     0.78     5.62     0  03:20        0.78
  WS02001212           JUNCTION     0.36     0.49     5.55     0  03:20        0.49
  WS02001213           JUNCTION     0.59     0.73     5.49     0  03:19        0.73
  WS02003069           JUNCTION     0.40     0.53     5.11     0  03:18        0.53
  WS02003072           JUNCTION     0.47     0.59     4.96     0  03:19        0.59
  WS02003073           JUNCTION     0.28     0.36     4.42     0  03:19        0.36
  WS02003060           JUNCTION     0.36     0.47     5.40     0  03:18        0.47
  WS02003066           JUNCTION     0.21     0.26     5.82     0  04:52        0.26
  WS02003059           JUNCTION     0.65     0.78     5.46     0  03:19        0.78
  WS02003067           JUNCTION     0.54     0.64     5.96     0  04:52        0.64
  WS02004401           JUNCTION     0.62     0.74     6.74     0  04:49        0.74
  WS02004402           JUNCTION     0.65     0.77     6.73     0  04:49        0.77
  WS02004403           JUNCTION     0.67     0.79     6.72     0  04:49        0.79
  WS02004404           JUNCTION     0.75     0.87     6.72     0  04:49        0.87
  WS02004406           JUNCTION     0.76     0.87     6.70     0  04:49        0.87
  WS02004409           JUNCTION     0.44     0.56     6.33     0  03:10        0.56
  WS02004410           JUNCTION     0.46     0.58     6.30     0  03:11        0.58
  WS02004411           JUNCTION     0.48     0.59     6.27     0  03:11        0.59
  WS02004412           JUNCTION     0.50     0.61     6.25     0  04:52        0.61
  WS02004413           JUNCTION     0.65     0.77     6.24     0  04:52        0.77
  WS02004405           JUNCTION     0.75     0.86     6.71     0  04:49        0.86
  WS02006109           JUNCTION     0.69     0.82     7.44     0  05:23        0.82
  WS02006110           JUNCTION     0.70     0.81     7.40     0  05:24        0.81
  WS02006111           JUNCTION     0.20     0.25     6.95     0  05:24        0.25
  WS02006112           JUNCTION     0.78     0.92     6.80     0  04:48        0.92
  WS02006113           JUNCTION     0.30     0.39     7.28     0  05:24        0.39
  WS02006115           JUNCTION     0.51     0.63     6.77     0  04:48        0.63
  WS02006116           JUNCTION     0.59     0.71     6.75     0  04:48        0.71
  WS02006230           JUNCTION     0.63     0.83     7.58     0  05:23        0.83
  WS02006231           JUNCTION     0.42     0.57     7.69     0  05:23        0.57
  WS02006232           JUNCTION     0.56     0.72     7.76     0  05:22        0.72
  WS02006234           JUNCTION     0.47     0.66     7.82     0  05:22        0.66
  WS02006235           JUNCTION     0.50     0.70     7.87     0  05:22        0.70
  WS02006238           JUNCTION     0.52     0.73     7.88     0  05:22        0.73
  WS02006240           JUNCTION     0.41     0.66     7.95     0  05:22        0.66
  WS02006242           JUNCTION     0.47     0.73     8.00     0  05:22        0.73
  WS02006243           JUNCTION     0.35     0.62     8.04     0  05:21        0.62
  WS02006245           JUNCTION     0.34     0.59     8.08     0  04:42        0.59
  WS02006247           JUNCTION     0.36     0.61     8.11     0  04:41        0.61
  WS02006248           JUNCTION     0.31     0.55     8.14     0  04:41        0.55
  WS02006249           JUNCTION     0.35     0.58     8.17     0  04:41        0.58
  WS02006239           JUNCTION     0.47     0.71     7.92     0  05:22        0.71
  WS02006251           JUNCTION     0.34     0.60     8.27     0  04:40        0.59
  WS02006252           JUNCTION     0.30     0.58     8.83     0  05:50        0.58
  WS02006253           JUNCTION     0.36     0.63     8.27     0  04:40        0.62
  WS02006256           JUNCTION     0.94     1.19     8.12     0  00:20        1.18
  WS02004138           JUNCTION     0.14     0.19     7.44     0  03:18        0.19
  WS02004407           JUNCTION     0.20     0.25     6.57     0  04:50        0.25
  WS02006228           JUNCTION     0.68     0.83     7.48     0  05:23        0.83
  WS02006229           JUNCTION     0.65     0.81     7.50     0  05:23        0.81
  WS02006280           JUNCTION     0.05     0.11     8.38     0  02:24        0.11
  WS02006284           JUNCTION     0.34     0.43     8.83     0  02:24        0.43
  WS02006287           JUNCTION     0.07     0.16     9.11     0  02:24        0.16
  WSF200               JUNCTION     0.19     0.26     5.49     0  04:50        0.26
  HS02004901           JUNCTION     0.10     0.19    10.01     0  02:22        0.19
  HS02004881           JUNCTION     0.00     0.02     9.05     0  02:23        0.02
  HS02004876           JUNCTION     0.03     0.09     9.12     0  02:23        0.09
  HS02004870           JUNCTION     0.01     0.03     9.31     0  02:24        0.03
  HS02004862           JUNCTION     0.01     0.03     9.42     0  02:25        0.03
  HS02004856           JUNCTION     0.07     0.09     9.52     0  02:24        0.09
  HS02004852           JUNCTION     0.00     0.02     9.53     0  02:25        0.02
  HS02004848           JUNCTION     0.00     0.02     9.62     0  02:22        0.02
  HS02004842           JUNCTION     0.33     0.35     9.62     0  02:22        0.35
  HS02004837           JUNCTION     0.02     0.04     9.62     0  02:22        0.04
  HS02004830           JUNCTION     0.03     0.05     9.52     0  02:23        0.05
  HS02004824           JUNCTION     0.02     0.03     9.43     0  02:26        0.03
  HS02004817           JUNCTION     0.42     0.49     9.33     0  02:25        0.49
  HS02004807           JUNCTION     0.10     0.16     9.33     0  02:24        0.16
  HS02004802           JUNCTION     0.14     0.20     9.33     0  02:24        0.20
  HS02004799           JUNCTION     0.09     0.20     9.41     0  02:22        0.20
  HS02004792           JUNCTION     0.02     0.07     9.59     0  02:21        0.07
  HS02004788           JUNCTION     0.02     0.05     9.95     0  02:23        0.05
  HS02004785           JUNCTION     0.03     0.10    10.00     0  02:23        0.10
  HS02004777           JUNCTION     0.12     0.21    10.01     0  02:23        0.21
  HS02004770           JUNCTION     0.09     0.18    10.01     0  02:22        0.18
  HS02004480           JUNCTION     0.05     0.15     9.39     0  02:23        0.15
  HS02004479           JUNCTION     0.09     0.18     9.39     0  02:23        0.18
  HS02004478           JUNCTION     0.04     0.09     9.32     0  02:24        0.09
  YS02001745           JUNCTION     0.06     0.09     7.60     0  03:01        0.09
  YS02001748           JUNCTION     0.09     0.17     7.25     0  04:00        0.17
  YS02001751           JUNCTION     0.24     0.39     7.27     0  04:07        0.39
  YS02001754           JUNCTION     0.49     0.69     7.30     0  04:01        0.68
  YS02001762           JUNCTION     0.68     0.85     7.25     0  03:58        0.85
  YS02001765           JUNCTION     0.63     0.81     7.26     0  03:53        0.81
  YS02001767           JUNCTION     0.60     0.76     7.25     0  04:05        0.76
  YS02001770           JUNCTION     0.59     0.75     7.24     0  03:47        0.74
  YS02001774           JUNCTION     0.66     0.82     7.24     0  03:48        0.82
  YS02001779           JUNCTION     0.41     0.56     7.25     0  04:04        0.56
  YS02001882           JUNCTION     0.23     0.33     7.05     0  03:00        0.33
  YS02001884           JUNCTION     0.32     0.43     7.05     0  03:01        0.43
  YS02001759           JUNCTION     0.71     0.89     7.25     0  03:50        0.88
  YS02001887           JUNCTION     0.40     0.51     7.05     0  03:00        0.51
  YS02001890           JUNCTION     0.43     0.54     7.05     0  03:00        0.54
  YS02001898           JUNCTION     0.20     0.30     7.03     0  03:01        0.30
  YS02001901           JUNCTION     0.32     0.42     7.03     0  03:02        0.42
  YS02001904           JUNCTION     0.30     0.40     7.03     0  03:01        0.40
  YS02001907           JUNCTION     0.62     0.74     7.03     0  03:01        0.74
  YS02001910           JUNCTION     0.41     0.52     7.03     0  03:01        0.52
  YS02001915           JUNCTION     0.22     0.31     7.03     0  03:00        0.31
  YS02001918           JUNCTION     0.06     0.07     7.14     0  03:04        0.07
  YS02001619           JUNCTION     0.20     0.32     7.24     0  03:47        0.31
  YS02001629           JUNCTION     0.54     0.70     7.24     0  03:52        0.69
  YS02001641           JUNCTION     0.65     0.81     7.24     0  03:47        0.81
  YS02001644           JUNCTION     0.65     0.81     7.25     0  03:50        0.81
  YS02001652           JUNCTION     0.50     0.66     7.26     0  04:11        0.66
  YS02001655           JUNCTION     0.27     0.40     7.25     0  03:57        0.40
  YS02001920           JUNCTION     0.15     0.17     7.17     0  03:03        0.17
  YS02001923           JUNCTION     0.05     0.06     7.32     0  03:02        0.06
  YS02001926           JUNCTION     0.11     0.14     7.58     0  03:02        0.14
  YS02001929           JUNCTION     0.05     0.06     7.76     0  03:01        0.06
  YS02001658           JUNCTION     0.06     0.10     7.24     0  04:04        0.10
  YS02001661           JUNCTION     0.13     0.16     7.57     0  02:54        0.16
  YS02001664           JUNCTION     0.05     0.09     8.01     0  02:53        0.09
  YS02001622           JUNCTION     0.22     0.34     7.24     0  03:46        0.34
  YS02001633           JUNCTION     0.63     0.79     7.24     0  03:51        0.79
  YS02001649           JUNCTION     0.69     0.85     7.24     0  03:49        0.85
  YS02001757           JUNCTION     0.81     1.00     7.26     0  03:56        1.00
  YS02001895           JUNCTION     0.20     0.30     7.04     0  03:00        0.30
  YS02001625           JUNCTION     0.50     0.64     7.24     0  03:47        0.64
  YS02163301           JUNCTION     0.57     0.73     7.24     0  03:45        0.73
  YS02163601           JUNCTION     0.69     0.85     7.25     0  03:50        0.85
  YS02164001           JUNCTION     0.63     0.78     7.24     0  03:46        0.78
  YS02001647           JUNCTION     0.48     0.64     7.25     0  03:49        0.63
  YSB1154              JUNCTION     0.23     0.33     9.39     0  02:23        0.33
  YSB6556              JUNCTION     0.12     0.22     9.39     0  02:23        0.22
  YSB1174              JUNCTION     0.18     0.28     9.39     0  02:23        0.28
  YSB1171              JUNCTION     0.38     0.49     9.39     0  02:23        0.49
  YS02006553           JUNCTION     0.63     0.75     7.03     0  03:01        0.75
  YS02006561           JUNCTION     0.11     0.16     6.82     0  03:00        0.16
  YS02006556           JUNCTION     0.60     0.72     7.03     0  03:00        0.72
  YS02006558           JUNCTION     0.65     0.76     7.03     0  03:00        0.76
  YS02001783           JUNCTION     0.18     0.29     6.43     0  03:01        0.29
  YS02001784           JUNCTION     0.22     0.32     6.39     0  03:01        0.32
  YS02001786           JUNCTION     0.19     0.27     6.30     0  03:01        0.27
  YS02001788           JUNCTION     0.13     0.20     6.17     0  03:02        0.20
  YS02001790           JUNCTION     0.16     0.24     5.88     0  03:02        0.24
  YS02001791           JUNCTION     0.11     0.16     5.63     0  03:02        0.16
  YS02001793           JUNCTION     0.07     0.11     4.94     0  03:02        0.11
  WS02004139           JUNCTION     0.58     0.73     5.64     0  03:20        0.73
  WSC                  OUTFALL      0.28     0.36     1.03     0  03:20        0.36
  3                    OUTFALL      0.05     0.19     6.19     0  00:20        0.18
  4                    OUTFALL      0.00     0.08     7.08     0  04:41        0.08
  5                    OUTFALL      0.00     0.00     5.00     0  00:00        0.00
  JK-storage           STORAGE      0.16     3.00     3.80     0  00:10        3.00
  CC-storage           STORAGE      0.08     0.19     7.19     0  04:06        0.19
  XR-storage           STORAGE      6.39     7.72     5.72     0  05:30        7.72
  
  
  *******************
  Node Inflow Summary
  *******************
  
  -------------------------------------------------------------------------------------------------
                                  Maximum  Maximum                  Lateral       Total        Flow
                                  Lateral    Total  Time of Max      Inflow      Inflow     Balance
                                   Inflow   Inflow   Occurrence      Volume      Volume       Error
  Node                 Type           LPS      LPS  days hr:min    10^6 ltr    10^6 ltr     Percent
  -------------------------------------------------------------------------------------------------
  WS02001211           JUNCTION      7.35   387.55     0  03:20       0.207        6.24       0.586
  WS02001212           JUNCTION      0.00   387.46     0  03:20           0        6.21       0.329
  WS02001213           JUNCTION      0.00   387.56     0  03:20           0        6.19       0.350
  WS02003069           JUNCTION      0.32   791.07     0  03:18     0.00902        12.3       0.220
  WS02003072           JUNCTION      0.00   791.04     0  03:18           0        12.3       0.276
  WS02003073           JUNCTION      1.82   792.84     0  03:19      0.0514        12.3       0.308
  WS02003060           JUNCTION     16.53   790.74     0  03:17       0.466        12.3       0.209
  WS02003066           JUNCTION      0.00   392.76     0  04:52           0        5.72       0.063
  WS02003059           JUNCTION      0.00   387.92     0  03:21           0        6.17       0.613
  WS02003067           JUNCTION      0.00   392.75     0  04:52           0        5.73       0.138
  WS02004401           JUNCTION      0.00   396.50     0  04:46           0        5.92       0.300
  WS02004402           JUNCTION      0.00   395.63     0  04:48           0         5.9       0.289
  WS02004403           JUNCTION      0.00   395.42     0  04:48           0        5.88       0.268
  WS02004404           JUNCTION      0.16   395.51     0  04:49     0.00457        5.87       0.208
  WS02004406           JUNCTION      0.00   395.44     0  04:49           0        5.84       0.507
  WS02004409           JUNCTION      0.00   395.31     0  04:50           0        5.81       0.211
  WS02004410           JUNCTION      0.00   394.46     0  04:50           0         5.8       0.246
  WS02004411           JUNCTION      0.00   393.72     0  04:50           0        5.78       0.260
  WS02004412           JUNCTION      0.00   393.27     0  04:51           0        5.77       0.291
  WS02004413           JUNCTION      0.00   392.86     0  04:52           0        5.75       0.445
  WS02004405           JUNCTION      0.04   395.53     0  04:49     0.00107        5.86       0.311
  WS02006109           JUNCTION      1.23   401.26     0  05:23      0.0347           6       0.242
  WS02006110           JUNCTION      0.00   401.20     0  05:23           0        5.98       0.285
  WS02006111           JUNCTION      0.00   409.88     0  04:45           0        5.96       0.050
  WS02006112           JUNCTION      5.13   402.74     0  05:24      0.0167        5.97       0.423
  WS02006113           JUNCTION      0.00   401.18     0  05:24           0        5.97       0.114
  WS02006115           JUNCTION      0.00   399.58     0  05:24           0        5.95       0.256
  WS02006116           JUNCTION      0.00   397.83     0  04:46           0        5.93       0.251
  WS02006230           JUNCTION     10.28   389.09     0  05:22        0.29        5.35       0.154
  WS02006231           JUNCTION      0.00   380.19     0  05:22           0        5.07       0.194
  WS02006232           JUNCTION      0.00   380.37     0  05:22           0        5.08       0.249
  WS02006234           JUNCTION      0.00   381.02     0  05:21           0        5.08       0.084
  WS02006235           JUNCTION      0.00   381.99     0  05:21           0        5.13       0.166
  WS02006238           JUNCTION      0.00   334.01     0  05:51           0        3.34       0.156
  WS02006240           JUNCTION      0.00   334.54     0  05:51           0        3.33       0.231
  WS02006242           JUNCTION      0.00   336.03     0  05:51           0        3.32       0.315
  WS02006243           JUNCTION      0.00   335.87     0  05:51           0        3.31      -0.264
  WS02006245           JUNCTION      0.00   336.82     0  05:50           0        3.31       0.267
  WS02006247           JUNCTION      0.00   338.64     0  05:50           0        3.32       0.174
  WS02006248           JUNCTION      0.00   341.83     0  05:50           0        3.32       0.037
  WS02006249           JUNCTION      0.00   393.25     0  04:40           0        3.38       0.323
  WS02006239           JUNCTION      0.00   333.94     0  05:51           0        3.33       0.225
  WS02006251           JUNCTION      0.08   400.03     0  06:20     0.00217        3.43       0.187
  WS02006252           JUNCTION      0.00   399.84     0  05:50           0         3.3       0.006
  WS02006253           JUNCTION      0.79    27.46     0  06:22     0.00216       0.132       1.873
  WS02006256           JUNCTION      0.00   599.15     0  00:20           0        3.11       0.070
  WS02004138           JUNCTION      0.00   380.00     0  03:10           0        6.07       0.075
  WS02004407           JUNCTION      0.00   395.35     0  04:49           0        5.81       0.095
  WS02006228           JUNCTION      0.00   400.23     0  05:23           0        5.97       0.178
  WS02006229           JUNCTION      0.00   400.20     0  05:23           0        5.98       0.159
  WS02006280           JUNCTION      0.00   119.67     0  02:24           0       0.646       0.011
  WS02006284           JUNCTION      0.10   119.67     0  02:24      0.0027       0.647       0.177
  WS02006287           JUNCTION      0.00   119.58     0  02:24           0       0.645       0.107
  WSF200               JUNCTION      0.00   392.76     0  04:52           0        5.71       0.055
  HS02004901           JUNCTION      6.36     6.36     0  02:14      0.0201      0.0202       9.518
  HS02004881           JUNCTION      2.57    21.37     0  02:23     0.00875      0.0905       0.182
  HS02004876           JUNCTION      4.06    19.03     0  02:23      0.0167      0.0823       0.634
  HS02004870           JUNCTION      4.52    15.06     0  02:23      0.0165      0.0657       0.161
  HS02004862           JUNCTION      3.78    10.85     0  02:24      0.0221      0.0493       0.339
  HS02004856           JUNCTION      3.34     7.10     0  02:23      0.0124      0.0287       5.268
  HS02004852           JUNCTION      0.00     3.98     0  02:23           0      0.0163       0.294
  HS02004848           JUNCTION      7.33     7.33     0  02:26      0.0389      0.0389       0.108
  HS02004842           JUNCTION      0.00     4.48     0  00:03           0      0.0357      57.347
  HS02004837           JUNCTION     13.57    16.77     0  02:21       0.208        0.23       0.353
  HS02004830           JUNCTION      0.15    16.91     0  02:22     0.00423       0.221       0.561
  HS02004824           JUNCTION      8.24    25.04     0  02:26      0.0512       0.271       0.199
  HS02004817           JUNCTION      0.60    25.64     0  02:26      0.0169       0.287       6.159
  HS02004807           JUNCTION      8.50    33.40     0  02:25      0.0304       0.301       1.424
  HS02004802           JUNCTION      0.00    33.47     0  02:26           0       0.297       1.389
  HS02004799           JUNCTION      6.53    73.42     0  02:21      0.0246       0.316       0.719
  HS02004792           JUNCTION     29.39    67.07     0  02:21        0.11       0.292       0.143
  HS02004788           JUNCTION     10.53    39.19     0  02:22      0.0812       0.182       0.216
  HS02004785           JUNCTION      0.15    29.03     0  02:21     0.00423       0.103       0.465
  HS02004777           JUNCTION      0.03    29.31     0  02:20    0.000846       0.103       5.266
  HS02004770           JUNCTION     24.81    30.23     0  02:17      0.0856       0.104       3.068
  HS02004480           JUNCTION      0.00    86.45     0  02:23           0       0.364       0.186
  HS02004479           JUNCTION      0.00    13.32     0  02:24           0       0.061       1.206
  HS02004478           JUNCTION      0.00   119.58     0  02:24           0       0.646       0.102
  YS02001745           JUNCTION     39.92    39.92     0  03:01       0.471       0.471       0.085
  YS02001748           JUNCTION      0.04    39.95     0  03:01     0.00127       0.472      -0.001
  YS02001751           JUNCTION      0.01   124.72     0  04:27     0.00031        0.62       0.321
  YS02001754           JUNCTION      0.26   236.77     0  04:21     0.00733        1.03       0.927
  YS02001762           JUNCTION      0.00    91.94     0  04:42           0       0.607       2.253
  YS02001765           JUNCTION      0.00    98.11     0  04:10           0       0.593       2.413
  YS02001767           JUNCTION      0.54    94.53     0  04:25      0.0151       0.596       3.357
  YS02001770           JUNCTION     52.06    57.16     0  02:44       0.564       0.596       2.779
  YS02001774           JUNCTION      0.00    28.57     0  02:31           0         0.1      16.909
  YS02001779           JUNCTION      0.01    23.74     0  04:04    0.000141       0.054      10.562
  YS02001882           JUNCTION      0.00     2.23     0  02:12           0     0.00349      70.634
  YS02001884           JUNCTION      0.00     6.66     0  02:08           0      0.0142      44.443
  YS02001759           JUNCTION     50.98   141.24     0  04:24       0.529        1.11       1.448
  YS02001887           JUNCTION     67.67    67.67     0  02:51       0.648       0.654       1.022
  YS02001890           JUNCTION      0.00    67.36     0  02:53           0       0.635       1.159
  YS02001898           JUNCTION      0.00    67.11     0  02:56           0       0.625       0.294
  YS02001901           JUNCTION      0.00    67.14     0  02:57           0       0.625       0.804
  YS02001904           JUNCTION      0.00    66.84     0  02:57           0       0.624       0.750
  YS02001907           JUNCTION      0.00   121.85     0  03:02           0        1.33       1.622
  YS02001910           JUNCTION      0.00    55.19     0  03:01           0       0.715       1.345
  YS02001915           JUNCTION     36.04    54.97     0  03:01       0.407       0.719       0.549
  YS02001918           JUNCTION      0.00    19.12     0  03:03           0       0.312       0.269
  YS02001619           JUNCTION     34.96    34.96     0  03:01         0.4         0.4       0.138
  YS02001629           JUNCTION      0.00    37.87     0  02:39           0       0.384       1.427
  YS02001641           JUNCTION      0.00    78.16     0  03:12           0       0.814       1.569
  YS02001644           JUNCTION     37.88   111.21     0  03:04       0.452        1.25       1.239
  YS02001652           JUNCTION      0.00    86.96     0  04:11           0       0.525       1.656
  YS02001655           JUNCTION      0.15    55.74     0  04:12     0.00434       0.479       0.691
  YS02001920           JUNCTION      2.87    19.13     0  03:02      0.0809       0.314       0.548
  YS02001923           JUNCTION      0.04    16.26     0  03:02     0.00106       0.233       0.097
  YS02001926           JUNCTION      0.05    16.28     0  03:01     0.00147       0.234       0.702
  YS02001929           JUNCTION     16.24    16.24     0  03:01       0.232       0.232       0.092
  YS02001658           JUNCTION      0.00    47.72     0  02:54           0       0.467       0.041
  YS02001661           JUNCTION      0.00    47.72     0  02:53           0       0.467       0.156
  YS02001664           JUNCTION     47.72    47.72     0  02:53       0.467       0.467       0.031
  YS02001622           JUNCTION      0.00    35.87     0  03:00           0         0.4       0.629
  YS02001633           JUNCTION     38.51    75.32     0  02:39       0.466       0.837       2.213
  YS02001649           JUNCTION      0.00   181.68     0  04:04           0        1.72       1.376
  YS02001757           JUNCTION      0.00   416.12     0  04:04           0        3.52       2.000
  YS02001895           JUNCTION      0.00    67.16     0  02:55           0       0.628       0.503
  YS02001625           JUNCTION      0.00    36.05     0  02:55           0       0.397       3.808
  YS02163301           JUNCTION      0.00    41.96     0  02:39           0       0.384       3.238
  YS02163601           JUNCTION      0.11    77.11     0  03:12      0.0031       0.818       2.365
  YS02164001           JUNCTION      0.00    77.21     0  03:15           0       0.808       1.446
  YS02001647           JUNCTION      0.00   114.10     0  03:06           0        1.22       0.971
  YSB1154              JUNCTION      7.22     7.22     0  02:19      0.0297      0.0312       4.859
  YSB6556              JUNCTION      0.00     7.20     0  02:22           0      0.0322       4.013
  YSB1174              JUNCTION      7.25     7.25     0  02:13      0.0218      0.0228       5.960
  YSB1171              JUNCTION      0.00    13.31     0  02:21           0      0.0606      11.644
  YS02006553           JUNCTION      0.00   122.01     0  03:02           0        1.32       1.057
  YS02006561           JUNCTION      0.00   178.54     0  03:00           0        1.86       0.028
  YS02006556           JUNCTION      0.00   122.19     0  03:04           0        1.32       0.757
  YS02006558           JUNCTION     57.33   178.56     0  03:00        0.59        1.89       0.228
  YS02001783           JUNCTION      0.00   178.54     0  03:01           0        1.86       0.066
  YS02001784           JUNCTION      1.06   179.60     0  03:01      0.0299        1.89       0.111
  YS02001786           JUNCTION      0.06   179.64     0  03:01     0.00159        1.89       0.108
  YS02001788           JUNCTION      0.07   179.71     0  03:02       0.002        1.89       0.060
  YS02001790           JUNCTION      0.15   179.85     0  03:02     0.00437        1.89       0.078
  YS02001791           JUNCTION      0.00   179.84     0  03:02           0        1.89       0.039
  YS02001793           JUNCTION      0.00   179.84     0  03:02           0        1.89       0.010
  WS02004139           JUNCTION      0.32   380.32     0  03:18     0.00905        6.07       0.620
  WSC                  OUTFALL       0.00   792.83     0  03:20           0        12.2       0.000
  3                    OUTFALL       0.00   444.59     0  00:20           0        1.29       0.000
  4                    OUTFALL       0.00    59.58     0  04:41           0      0.0528       0.000
  5                    OUTFALL       0.00     0.00     0  00:00           0           0       0.000 ltr
  JK-storage           STORAGE       0.00   179.84     0  03:02           0        2.04     -34.840
  CC-storage           STORAGE       0.00   290.93     0  03:05           0        3.04      -7.756
  XR-storage           STORAGE     265.36   265.36     0  03:01        6.42        7.02      -0.001
  
  
  **********************
  Node Surcharge Summary
  **********************
  
  Surcharging occurs when water rises above the top of the highest conduit.
  ---------------------------------------------------------------------
                                               Max. Height   Min. Depth
                                   Hours       Above Crown    Below Rim
  Node                 Type      Surcharged         Meters       Meters
  ---------------------------------------------------------------------
  WS02006109           JUNCTION        0.11          0.003        1.817
  WS02006232           JUNCTION        0.32          0.023        1.457
  WS02006238           JUNCTION        0.13          0.012        1.418
  WS02006252           JUNCTION        0.86          0.184        0.916
  WS02006228           JUNCTION        0.01          0.000        2.200
  YS02001757           JUNCTION        0.01          0.000        1.210
  
  
  *********************
  Node Flooding Summary
  *********************
  
  Flooding refers to all water that overflows a node, whether it ponds or not.
  --------------------------------------------------------------------------
                                                             Total   Maximum
                                 Maximum   Time of Max       Flood    Ponded
                        Hours       Rate    Occurrence      Volume     Depth
  Node                 Flooded       LPS   days hr:min    10^6 ltr    Meters
  --------------------------------------------------------------------------
  XR-storage              0.45    124.70      0  07:30       0.073     0.000
  
  
  **********************
  Storage Volume Summary
  **********************
  
  --------------------------------------------------------------------------------------------------
                         Average     Avg  Evap Exfil       Maximum     Max    Time of Max    Maximum
                          Volume    Pcnt  Pcnt  Pcnt        Volume    Pcnt     Occurrence    Outflow
  Storage Unit           1000 m3    Full  Loss  Loss       1000 m3    Full    days hr:min        LPS
  --------------------------------------------------------------------------------------------------
  JK-storage               0.008       3     0     0         0.151      52       0  00:10     599.15
  CC-storage               0.217       1     0     0         0.541       3       0  04:06     399.84
  XR-storage               0.766      83     0     0         0.926     100       0  05:30     380.00
  
  
  ***********************
  Outfall Loading Summary
  ***********************
  
  -----------------------------------------------------------
                         Flow       Avg       Max       Total
                         Freq      Flow      Flow      Volume
  Outfall Node           Pcnt       LPS       LPS    10^6 ltr
  -----------------------------------------------------------
  WSC                  100.00    500.46    792.83      12.242
  3                     62.82    105.27    444.59       1.294
  4                     11.17     21.33     59.58       0.053
  5                      0.00      0.00      0.00       0.000
  -----------------------------------------------------------
  System                43.50    627.06    995.68      13.589
  
  
  ********************
  Link Flow Summary
  ********************
  
  -----------------------------------------------------------------------------
                                 Maximum  Time of Max   Maximum    Max/    Max/
                                  |Flow|   Occurrence   |Veloc|    Full    Full
  Link                 Type          LPS  days hr:min     m/sec    Flow   Depth
  -----------------------------------------------------------------------------
  WS02003066WSF200     CONDUIT    392.76     0  04:52      2.67    0.07    0.19
  WS02006287WS02006284 CONDUIT    119.58     0  02:24      1.34    0.06    0.17
  WS02006284WS02006280 CONDUIT    119.67     0  02:24      1.59    0.05    0.15
  WS02006280WS02006229 CONDUIT    119.67     0  02:24      2.54    0.03    0.11
  WS02006229WS02006228 CONDUIT    400.23     0  05:23      0.80    1.33    1.00
  WS02006256WS02006235 CONDUIT    158.12     0  00:13      2.30    1.67    1.00
  WS02006253WS02006251 CONDUIT     94.41     0  07:00      0.44    0.28    0.87
  WS02006252WS02006251 CONDUIT    399.96     0  06:20      3.18    1.47    1.00
  WS02006251WS02006249 CONDUIT    393.25     0  04:40      1.15    1.13    0.84
  WS02006249WS02006248 CONDUIT    341.83     0  05:50      1.17    1.87    0.79
  WS02006248WS02006247 CONDUIT    338.64     0  05:50      1.14    0.74    0.82
  WS02006247WS02006245 CONDUIT    336.82     0  05:50      1.11    2.67    0.85
  WS02006245WS02006243 CONDUIT    335.87     0  05:51      1.14    0.99    0.86
  WS02006243WS02006242 CONDUIT    336.03     0  05:51      1.00    0.72    0.94
  WS02006242WS02006240 CONDUIT    334.54     0  05:51      0.92    1.33    0.96
  WS02006240WS02006239 CONDUIT    333.94     0  05:51      0.97    1.05    0.95
  WS02006239WS02006238 CONDUIT    334.01     0  05:51      0.92    1.07    1.00
  WS02006238WS02006235 CONDUIT    333.13     0  05:51      0.91    0.74    1.00
  WS02006235WS02006234 CONDUIT    381.02     0  05:21      1.02    4.02    0.95
  WS02006234WS02006232 CONDUIT    380.37     0  05:22      1.02    0.77    0.97
  WS02006232WS02006231 CONDUIT    380.19     0  05:22      1.04    0.80    0.90
  WS02006231WS02006230 CONDUIT    378.81     0  05:22      1.33    5.75    0.73
  WS02006230WS02006229 CONDUIT    387.68     0  05:23      1.01    8.63    1.00
  WS02006228WS02006109 CONDUIT    400.03     0  05:23      0.80    1.75    1.00
  WS02006116WS02004401 CONDUIT    396.50     0  04:46      0.73    0.55    0.73
  WS02006115WS02006116 CONDUIT    397.83     0  04:46      0.79    0.51    0.64
  WS02006113WS02006111 CONDUIT    409.88     0  04:45      2.22    0.49    0.39
  WS02006112WS02006115 CONDUIT    399.58     0  05:24      0.62    0.24    0.77
  WS02006111WS02006112 CONDUIT    402.69     0  05:24      1.31    0.19    0.65
  WS02006110WS02006113 CONDUIT    401.18     0  05:24      1.00    0.37    0.74
  WS02006109WS02006110 CONDUIT    401.20     0  05:23      0.82    0.77    0.94
  WS02004411WS02004412 CONDUIT    393.27     0  04:51      0.80    0.56    0.60
  WS02004401WS02004402 CONDUIT    395.63     0  04:48      0.77    0.47    0.76
  WS02004413WS02003067 CONDUIT    392.75     0  04:52      0.94    0.17    0.53
  WS02004412WS02004413 CONDUIT    392.86     0  04:52      0.68    0.26    0.69
  WS02004410WS02004411 CONDUIT    393.72     0  04:50      0.82    0.54    0.59
  WS02004409WS02004410 CONDUIT    394.46     0  04:50      0.86    0.51    0.57
  WS02004407WS02004409 CONDUIT    395.31     0  04:50      1.33    0.14    0.41
  WS02004406WS02004407 CONDUIT    395.35     0  04:49      0.87    0.18    0.56
  WS02004405WS02004406 CONDUIT    395.44     0  04:49      0.62    0.78    0.87
  WS02004404WS02004405 CONDUIT    395.49     0  04:49      0.85    3.87    0.87
  WS02004403WS02004404 CONDUIT    395.35     0  04:49      0.74    0.29    0.83
  WS02004402WS02004403 CONDUIT    395.42     0  04:48      0.75    0.57    0.78
  WS02004139WS02001211 CONDUIT    380.20     0  03:20      0.69    0.48    0.59
  WS02004138WS02004139 CONDUIT    380.00     0  03:18      2.95    0.08    0.43
  WS02003067WS02003066 CONDUIT    392.76     0  04:52      1.01    0.13    0.38
  WS02001213WS02003059 CONDUIT    387.92     0  03:21      0.66    0.64    0.74
  WS02001212WS02001213 CONDUIT    387.56     0  03:20      1.28    0.60    0.45
  WS02001211WS02001212 CONDUIT    387.46     0  03:20      0.75    0.30    0.63
  WS02003072WS02003073 CONDUIT    791.02     0  03:19      1.62    1.71    0.45
  WS02003069WS02003072 CONDUIT    791.04     0  03:18      1.53    0.38    0.47
  WS02003060WS02003069 CONDUIT    790.75     0  03:18      1.79    0.31    0.41
  WS02003059WS02003060 CONDUIT    388.79     0  03:21      0.90    0.25    0.62
  HS02004901HS02004770 CONDUIT      5.72     0  02:20      0.03    0.02    0.26
  HS02004876HS02004881 CONDUIT     19.03     0  02:24      0.38    0.20    0.07
  HS02004870HS02004876 CONDUIT     15.04     0  02:24      0.27    0.01    0.08
  HS02004842HS02004848 CONDUIT      3.55     0  02:35      0.02    0.00    0.26
  HS02004837HS02004842 CONDUIT      4.48     0  00:03      0.42    0.00    0.28
  HS02004830HS02004837 CONDUIT     16.76     0  02:22      0.38    0.02    0.06
  HS02004824HS02004830 CONDUIT     16.91     0  02:23      0.42    0.02    0.06
  HS02004817HS02004824 CONDUIT     25.04     0  02:26      0.17    0.01    0.37
  HS02004770HS02004777 CONDUIT     29.28     0  02:20      0.15    0.05    0.28
  HS02004799HS02004480 CONDUIT     73.28     0  02:22      0.44    0.09    0.24
  HS02004792HS02004799 CONDUIT     67.03     0  02:21      0.51    0.04    0.19
  HS02004788HS02004792 CONDUIT     39.15     0  02:23      0.68    0.03    0.08
  HS02004785HS02004788 CONDUIT     28.92     0  02:23      0.39    0.22    0.11
  HS02004777HS02004785 CONDUIT     28.88     0  02:21      0.19    0.04    0.22
  HS02004480HS02004478 CONDUIT     86.43     0  02:23      0.76    0.36    0.16
  HS02004479HS02004480 CONDUIT     13.42     0  02:25      0.15    0.01    0.24
  HS02004862HS02004870 CONDUIT     10.82     0  02:25      0.36    0.01    0.04
  HS02004848HS02004852 CONDUIT      3.98     0  02:23      0.23    0.00    0.02
  HS02004856HS02004862 CONDUIT      7.09     0  02:24      0.26    0.01    0.04
  HS02004852HS02004856 CONDUIT      3.95     0  02:25      0.07    0.00    0.08
  HS02004802HS02004478 CONDUIT     33.61     0  02:27      0.23    0.03    0.21
  HS02004478WS02006287 CONDUIT    119.58     0  02:24      1.03    0.03    0.13
  HS02004817HS02004807 CONDUIT     25.87     0  02:29      0.08    0.02    0.46
  HS02004807HS02004802 CONDUIT     33.47     0  02:26      0.19    0.06    0.25
  YS02001759YS02001757 CONDUIT    112.08     0  03:00      0.15    0.08    0.94
  YS02001762YS02001759 CONDUIT    114.35     0  04:24      0.17    0.13    0.86
  YS02001765YS02001762 CONDUIT     74.38     0  04:44      0.22    0.07    0.83
  YS02001770YS02001767 CONDUIT     61.94     0  02:59      0.29    0.25    0.75
  YS02001774YS02001770 CONDUIT     28.57     0  02:31      0.11    0.02    0.77
  YS02001779YS02001774 CONDUIT     23.73     0  04:04      0.06    0.01    0.69
  YS02001649YS02001757 CONDUIT    166.85     0  03:08      0.23    0.10    0.93
  YS02001767YS02001765 CONDUIT     98.11     0  04:10      0.25    0.12    0.77
  YS02006561YS02001783 CONDUIT    178.54     0  03:01      1.54    0.09    0.28
  YS02001783YS02001784 CONDUIT    178.54     0  03:01      1.03    0.25    0.38
  YS02001784YS02001785 CONDUIT    179.58     0  03:01      1.07    0.42    0.37
  YS02001788YS02001790 CONDUIT    179.70     0  03:02      1.62    0.13    0.27
  YS02001790YS02001791 CONDUIT    179.84     0  03:02      1.85    0.20    0.25
  YS02001791YS02001793 CONDUIT    179.84     0  03:02      3.43    0.08    0.16
  YS02001910YS02001907 CONDUIT     55.13     0  03:01      0.49    0.03    0.63
  YS02001786YS02001788 CONDUIT    179.64     0  03:02      1.47    0.35    0.29
  YS02001915YS02001910 CONDUIT     55.19     0  03:01      0.44    0.03    0.42
  YS02001918YS02001915 CONDUIT     19.11     0  03:04      0.44    0.01    0.19
  YS02001923YS02001920 CONDUIT     16.26     0  03:02      0.33    0.01    0.11
  YS02001926YS02001923 CONDUIT     16.23     0  03:02      0.39    0.02    0.10
  YS02001929YS02001926 CONDUIT     16.23     0  03:01      0.40    0.01    0.10
  YS02001920YS02001918 CONDUIT     19.12     0  03:03      0.36    0.02    0.12
  YS02001629YS02163301 CONDUIT     41.96     0  02:39      0.09    0.05    0.71
  YS02001619YS02001622 CONDUIT     35.87     0  03:00      0.55    0.05    0.33
  YS02001622YS02001625 CONDUIT     36.05     0  02:55      0.18    0.02    0.49
  YS02001625YS02001629 CONDUIT     37.87     0  02:39      0.18    0.02    0.48
  YS02163301YS02001633 CONDUIT     40.28     0  02:39      0.08    0.04    0.76
  YS02163601YS02164001 CONDUIT     77.21     0  03:15      0.12    0.07    0.82
  YS02164001YS02001641 CONDUIT     78.16     0  03:12      0.12    0.11    0.80
  YS02001641YS02001644 CONDUIT     74.38     0  03:14      0.12    0.24    0.81
  YS02001647YS02001649 CONDUIT    115.59     0  03:06      0.19    0.06    0.74
  YS02006553YS02006556 CONDUIT    122.19     0  03:04      0.20    0.10    0.71
  YS02006556YS02006558 CONDUIT    122.30     0  03:04      0.20    0.10    0.74
  YSB6556YSB1171       CONDUIT      7.24     0  02:26      0.04    0.01    0.50
  YS02001907YS02006553 CONDUIT    122.01     0  03:02      0.17    0.14    0.81
  YS02006558YS02006561 CONDUIT    178.54     0  03:00      1.98    0.39    0.36
  YS02001633YS02163601 CONDUIT     77.00     0  03:12      0.12    0.08    0.81
  YS02001644YS02001647 CONDUIT    114.10     0  03:06      0.20    0.07    0.72
  YS02001745YS02001748 CONDUIT     39.91     0  03:01      1.21    0.02    0.09
  YS02001748YS02001751 CONDUIT     62.92     0  04:14      0.95    0.03    0.27
  YS02001751YS02001754 CONDUIT    127.39     0  04:15      0.86    0.06    0.49
  YS02001754YS02001757 CONDUIT    178.45     0  04:14      0.33    0.07    0.82
  YS02001882YS02001884 CONDUIT      2.23     0  02:12      0.06    0.00    0.35
  YS02001884YS02001887 CONDUIT      6.66     0  02:08      0.05    0.01    0.45
  YS02001890YS02001895 CONDUIT     67.16     0  02:55      0.22    0.03    0.42
  YS02001895YS02001898 CONDUIT     67.11     0  02:56      0.42    0.12    0.28
  YS02001898YS02001901 CONDUIT     67.14     0  02:57      0.26    0.04    0.36
  YS02001901YS02001904 CONDUIT     66.84     0  02:57      0.22    0.10    0.41
  YS02001904YS02001907 CONDUIT     67.05     0  03:02      0.14    0.02    0.57
  YS02001887YS02001890 CONDUIT     67.36     0  02:53      0.17    0.12    0.50
  YS02001652YS02001649 CONDUIT     82.16     0  04:24      0.26    0.04    0.75
  YS02001655YS02001652 CONDUIT     68.13     0  04:05      0.92    0.03    0.51
  YS02001658YS02001655 CONDUIT     47.72     0  02:54      1.08    0.02    0.24
  YS02001661YS02001658 CONDUIT     47.72     0  02:54      1.22    0.02    0.10
  YS02001664YS02001661 CONDUIT     47.72     0  02:53      0.84    0.01    0.13
  YSB1154YSB6556       CONDUIT      7.20     0  02:22      0.19    0.01    0.39
  YSB1174YSB1171       CONDUIT      6.78     0  02:15      0.04    0.01    0.51
  YSB1171HS02004479    CONDUIT     13.32     0  02:24      0.54    0.01    0.39
  HS02004881HS02006253 CONDUIT     21.37     0  02:23      1.32    0.00    0.21
  YS02001793JiankangQianchi CONDUIT    179.84     0  03:02     11.14    0.01    0.53
  YS02001757CaochengTiaoxuchi CONDUIT    290.93     0  03:05      0.73    0.13    0.60
  WSF200WS02003060     CONDUIT    393.68     0  03:12      1.60    0.09    0.29
  1                    CONDUIT    792.83     0  03:20      3.12    0.28    0.36
  2                    CONDUIT     59.58     0  04:41      4.18    0.14    0.26
  3                    CONDUIT    444.59     0  00:20      9.54    0.71    0.63
  4                    CONDUIT      0.00     0  00:00      0.00    0.00    0.00
  CC-Pump-1            PUMP       200.00     0  03:50              1.00
  CC-Pump-2            PUMP       200.00     0  04:20              1.00
  JK-Pump-1            PUMP       300.00     0  04:30              1.00
  JK-Pump-2            PUMP       299.89     0  03:50              1.00
  XR-Pump-1            PUMP        95.00     0  00:00              1.00
  XR-Pump-2            PUMP        95.00     0  01:10              1.00
  XR-Pump-3            PUMP        95.00     0  00:50              1.00
  XR-Pump-4            PUMP        95.00     0  00:00              1.00
  
  
  ***************************
  Flow Classification Summary
  ***************************
  
  -------------------------------------------------------------------------------------
                      Adjusted    ---------- Fraction of Time in Flow Class ---------- 
                       /Actual         Up    Down  Sub   Sup   Up    Down  Norm  Inlet 
  Conduit               Length    Dry  Dry   Dry   Crit  Crit  Crit  Crit  Ltd   Ctrl  
  -------------------------------------------------------------------------------------
  WS02003066WSF200        1.00   0.07  0.00  0.00  0.00  0.93  0.00  0.00  0.75  0.00
  WS02006287WS02006284    1.00   0.04  0.02  0.00  0.73  0.21  0.00  0.00  0.81  0.00
  WS02006284WS02006280    1.00   0.05  0.00  0.00  0.00  0.00  0.00  0.95  0.00  0.00
  WS02006280WS02006229    1.00   0.05  0.00  0.00  0.00  0.00  0.00  0.95  0.00  0.00
  WS02006229WS02006228    1.00   0.00  0.00  0.00  1.00  0.00  0.00  0.00  0.00  0.00
  WS02006256WS02006235    1.00   0.00  0.00  0.00  0.99  0.00  0.00  0.00  0.00  0.00
  WS02006253WS02006251    1.00   0.03  0.01  0.00  0.95  0.00  0.00  0.00  0.00  0.00
  WS02006252WS02006251    1.00   0.10  0.00  0.00  0.00  0.00  0.90  0.00  0.00  0.00
  WS02006251WS02006249    1.00   0.00  0.00  0.00  1.00  0.00  0.00  0.00  0.34  0.00
  WS02006249WS02006248    1.00   0.00  0.00  0.00  0.84  0.00  0.16  0.00  0.00  0.00
  WS02006248WS02006247    1.00   0.00  0.00  0.00  0.97  0.00  0.00  0.03  0.24  0.00
  WS02006247WS02006245    1.00   0.00  0.00  0.00  0.97  0.00  0.00  0.03  0.00  0.00
  WS02006245WS02006243    1.00   0.01  0.00  0.00  0.94  0.00  0.00  0.05  0.04  0.00
  WS02006243WS02006242    1.00   0.01  0.00  0.00  0.99  0.00  0.00  0.00  0.26  0.00
  WS02006242WS02006240    1.00   0.01  0.00  0.00  0.99  0.00  0.00  0.00  0.00  0.00
  WS02006240WS02006239    1.00   0.01  0.00  0.00  0.95  0.00  0.00  0.04  0.01  0.00
  WS02006239WS02006238    1.00   0.00  0.00  0.00  1.00  0.00  0.00  0.00  0.05  0.00
  WS02006238WS02006235    1.00   0.00  0.00  0.00  1.00  0.00  0.00  0.00  0.00  0.00
  WS02006235WS02006234    1.00   0.00  0.00  0.00  0.95  0.00  0.04  0.00  0.00  0.00
  WS02006234WS02006232    1.00   0.00  0.00  0.00  0.99  0.00  0.00  0.00  0.10  0.00
  WS02006232WS02006231    1.00   0.00  0.00  0.00  0.99  0.00  0.00  0.00  0.00  0.00
  WS02006231WS02006230    1.00   0.01  0.00  0.00  0.32  0.00  0.67  0.00  0.00  0.00
  WS02006230WS02006229    1.00   0.00  0.00  0.00  0.99  0.00  0.00  0.01  0.00  0.00
  WS02006228WS02006109    1.00   0.00  0.00  0.00  1.00  0.00  0.00  0.00  0.00  0.00
  WS02006116WS02004401    1.00   0.03  0.00  0.00  0.97  0.00  0.00  0.00  0.00  0.00
  WS02006115WS02006116    1.00   0.03  0.00  0.00  0.96  0.00  0.00  0.01  0.00  0.00
  WS02006113WS02006111    1.00   0.02  0.00  0.00  0.00  0.98  0.00  0.00  0.15  0.00
  WS02006112WS02006115    1.00   0.02  0.01  0.00  0.97  0.00  0.00  0.00  0.00  0.00
  WS02006111WS02006112    1.00   0.02  0.00  0.00  0.97  0.00  0.00  0.00  0.96  0.00
  WS02006110WS02006113    1.00   0.00  0.02  0.00  0.98  0.00  0.00  0.00  0.00  0.00
  WS02006109WS02006110    1.00   0.00  0.00  0.00  1.00  0.00  0.00  0.00  0.00  0.00
  WS02004411WS02004412    1.00   0.04  0.00  0.00  0.96  0.00  0.00  0.00  0.00  0.00
  WS02004401WS02004402    1.00   0.03  0.00  0.00  0.97  0.00  0.00  0.00  0.00  0.00
  WS02004413WS02003067    1.00   0.05  0.02  0.00  0.00  0.00  0.94  0.00  0.00  0.00
  WS02004412WS02004413    1.00   0.04  0.00  0.00  0.96  0.00  0.00  0.00  0.03  0.00
  WS02004410WS02004411    1.00   0.04  0.00  0.00  0.96  0.00  0.00  0.00  0.04  0.00
  WS02004409WS02004410    1.00   0.04  0.00  0.00  0.96  0.00  0.00  0.00  0.04  0.00
  WS02004407WS02004409    1.00   0.04  0.00  0.00  0.95  0.00  0.00  0.00  0.87  0.00
  WS02004406WS02004407    1.00   0.00  0.04  0.00  0.96  0.00  0.00  0.00  0.00  0.00
  WS02004405WS02004406    1.00   0.00  0.00  0.00  1.00  0.00  0.00  0.00  0.03  0.00
  WS02004404WS02004405    1.00   0.00  0.00  0.00  1.00  0.00  0.00  0.00  0.00  0.00
  WS02004403WS02004404    1.00   0.00  0.03  0.00  0.97  0.00  0.00  0.00  0.01  0.00
  WS02004402WS02004403    1.00   0.03  0.00  0.00  0.97  0.00  0.00  0.00  0.00  0.00
  WS02004139WS02001211    1.00   0.00  0.00  0.00  1.00  0.00  0.00  0.00  0.00  0.00
  WS02004138WS02004139    1.00   0.00  0.00  0.00  1.00  0.00  0.00  0.00  1.00  0.00
  WS02003067WS02003066    1.00   0.06  0.01  0.00  0.93  0.00  0.00  0.00  0.00  0.00
  WS02001213WS02003059    1.00   0.00  0.00  0.00  1.00  0.00  0.00  0.00  0.00  0.00
  WS02001212WS02001213    1.00   0.00  0.00  0.00  0.76  0.00  0.24  0.00  0.00  0.00
  WS02001211WS02001212    1.00   0.00  0.00  0.00  1.00  0.00  0.00  0.00  0.00  0.00
  WS02003072WS02003073    1.00   0.00  0.00  0.00  0.00  0.00  0.00  1.00  0.00  0.00
  WS02003069WS02003072    1.00   0.00  0.00  0.00  1.00  0.00  0.00  0.00  0.32  0.00
  WS02003060WS02003069    1.00   0.00  0.00  0.00  1.00  0.00  0.00  0.00  0.16  0.00
  WS02003059WS02003060    1.00   0.00  0.00  0.00  1.00  0.00  0.00  0.00  0.01  0.00
  HS02004901HS02004770    1.00   0.05  0.00  0.00  0.95  0.00  0.00  0.00  0.03  0.00
  HS02004876HS02004881    1.00   0.00  0.00  0.00  1.00  0.00  0.00  0.00  0.00  0.00
  HS02004870HS02004876    1.00   0.00  0.00  0.00  0.99  0.01  0.00  0.00  0.95  0.00
  HS02004842HS02004848    1.00   0.00  0.05  0.00  0.95  0.00  0.00  0.00  0.71  0.00
  HS02004837HS02004842    1.00   0.00  0.00  0.00  1.00  0.00  0.00  0.00  0.11  0.00
  HS02004830HS02004837    1.00   0.00  0.00  0.00  1.00  0.00  0.00  0.00  0.99  0.00
  HS02004824HS02004830    1.00   0.00  0.00  0.00  1.00  0.00  0.00  0.00  0.00  0.00
  HS02004817HS02004824    1.00   0.00  0.00  0.00  1.00  0.00  0.00  0.00  1.00  0.00
  HS02004770HS02004777    1.00   0.00  0.05  0.00  0.95  0.00  0.00  0.00  0.07  0.00
  HS02004799HS02004480    1.00   0.00  0.02  0.00  0.94  0.00  0.04  0.00  0.00  0.00
  HS02004792HS02004799    1.00   0.00  0.00  0.00  1.00  0.00  0.00  0.00  0.98  0.00
  HS02004788HS02004792    1.00   0.00  0.00  0.00  1.00  0.00  0.00  0.00  0.98  0.00
  HS02004785HS02004788    1.00   0.00  0.00  0.00  1.00  0.00  0.00  0.00  0.00  0.00
  HS02004777HS02004785    1.00   0.00  0.00  0.00  1.00  0.00  0.00  0.00  0.21  0.00
  HS02004480HS02004478    1.00   0.05  0.00  0.00  0.75  0.00  0.00  0.20  0.00  0.00
  HS02004479HS02004480    1.00   0.02  0.00  0.00  0.98  0.00  0.00  0.00  0.16  0.00
  HS02004862HS02004870    1.00   0.00  0.00  0.00  1.00  0.00  0.00  0.00  0.06  0.00
  HS02004848HS02004852    1.00   0.05  0.00  0.00  0.95  0.00  0.00  0.00  0.69  0.00
  HS02004856HS02004862    1.00   0.00  0.07  0.00  0.93  0.00  0.00  0.00  0.73  0.00
  HS02004852HS02004856    1.00   0.05  0.01  0.00  0.95  0.00  0.00  0.00  0.83  0.00
  HS02004802HS02004478    1.00   0.05  0.01  0.00  0.95  0.00  0.00  0.00  0.00  0.00
  HS02004478WS02006287    1.00   0.06  0.00  0.00  0.94  0.00  0.00  0.00  0.81  0.00
  HS02004817HS02004807    1.00   0.00  0.05  0.00  0.95  0.00  0.00  0.00  0.00  0.00
  HS02004807HS02004802    1.00   0.05  0.00  0.00  0.95  0.00  0.00  0.00  0.01  0.00
  YS02001759YS02001757    1.00   0.00  0.00  0.00  1.00  0.00  0.00  0.00  0.17  0.00
  YS02001762YS02001759    1.00   0.00  0.00  0.00  1.00  0.00  0.00  0.00  0.05  0.00
  YS02001765YS02001762    1.00   0.00  0.00  0.00  1.00  0.00  0.00  0.00  0.23  0.00
  YS02001770YS02001767    1.00   0.00  0.00  0.00  1.00  0.00  0.00  0.00  0.00  0.00
  YS02001774YS02001770    1.00   0.00  0.06  0.00  0.94  0.00  0.00  0.00  0.07  0.00
  YS02001779YS02001774    1.00   0.00  0.00  0.00  1.00  0.00  0.00  0.00  0.28  0.00
  YS02001649YS02001757    1.00   0.00  0.00  0.00  1.00  0.00  0.00  0.00  0.19  0.00
  YS02001767YS02001765    1.00   0.00  0.00  0.00  1.00  0.00  0.00  0.00  0.01  0.00
  YS02006561YS02001783    1.00   0.07  0.00  0.00  0.00  0.92  0.00  0.00  0.72  0.00
  YS02001783YS02001784    1.00   0.00  0.08  0.00  0.92  0.00  0.00  0.00  0.09  0.00
  YS02001784YS02001785    1.00   0.00  0.00  0.00  1.00  0.00  0.00  0.00  0.26  0.00
  YS02001788YS02001790    1.00   0.00  0.00  0.00  0.08  0.92  0.00  0.00  0.99  0.00
  YS02001790YS02001791    1.00   0.00  0.00  0.00  0.00  1.00  0.00  0.00  0.37  0.00
  YS02001791YS02001793    1.00   0.00  0.00  0.00  0.00  1.00  0.00  0.00  0.00  0.00
  YS02001910YS02001907    1.00   0.00  0.00  0.00  0.99  0.00  0.00  0.01  0.13  0.00
  YS02001786YS02001788    1.00   0.00  0.00  0.00  0.08  0.92  0.00  0.00  0.00  0.00
  YS02001915YS02001910    1.00   0.00  0.00  0.00  1.00  0.00  0.00  0.00  0.25  0.00
  YS02001918YS02001915    1.00   0.00  0.00  0.00  1.00  0.00  0.00  0.00  0.81  0.00
  YS02001923YS02001920    1.00   0.00  0.00  0.00  1.00  0.00  0.00  0.00  1.00  0.00
  YS02001926YS02001923    1.00   0.00  0.03  0.00  0.00  0.00  0.97  0.00  0.00  0.00
  YS02001929YS02001926    1.00   0.00  0.05  0.00  0.95  0.00  0.00  0.00  0.87  0.00
  YS02001920YS02001918    1.00   0.00  0.00  0.00  1.00  0.00  0.00  0.00  0.00  0.00
  YS02001629YS02163301    1.00   0.07  0.00  0.00  0.93  0.00  0.00  0.00  0.00  0.00
  YS02001619YS02001622    1.00   0.05  0.00  0.00  0.95  0.00  0.00  0.00  0.00  0.00
  YS02001622YS02001625    1.00   0.05  0.00  0.00  0.95  0.00  0.00  0.00  0.14  0.00
  YS02001625YS02001629    1.00   0.05  0.03  0.00  0.90  0.00  0.02  0.00  0.00  0.00
  YS02163301YS02001633    1.00   0.00  0.06  0.00  0.94  0.00  0.00  0.00  0.00  0.00
  YS02163601YS02164001    1.00   0.00  0.04  0.00  0.96  0.00  0.00  0.00  0.00  0.00
  YS02164001YS02001641    1.00   0.00  0.03  0.00  0.96  0.00  0.00  0.00  0.07  0.00
  YS02001641YS02001644    1.00   0.00  0.00  0.00  1.00  0.00  0.00  0.00  0.00  0.00
  YS02001647YS02001649    1.00   0.00  0.07  0.00  0.93  0.00  0.00  0.00  0.01  0.00
  YS02006553YS02006556    1.00   0.00  0.00  0.00  1.00  0.00  0.00  0.00  0.03  0.00
  YS02006556YS02006558    1.00   0.00  0.00  0.00  1.00  0.00  0.00  0.00  0.00  0.00
  YSB6556YSB1171          1.00   0.02  0.02  0.00  0.96  0.00  0.00  0.00  0.00  0.00
  YS02001907YS02006553    1.00   0.00  0.00  0.00  1.00  0.00  0.00  0.00  0.00  0.00
  YS02006558YS02006561    1.00   0.07  0.00  0.00  0.00  0.92  0.00  0.00  0.71  0.00
  YS02001633YS02163601    1.00   0.00  0.00  0.00  1.00  0.00  0.00  0.00  0.20  0.00
  YS02001644YS02001647    1.00   0.00  0.07  0.00  0.93  0.00  0.00  0.00  0.00  0.00
  YS02001745YS02001748    1.00   0.00  0.00  0.00  0.00  0.09  0.00  0.91  0.06  0.00
  YS02001748YS02001751    1.00   0.00  0.00  0.00  0.96  0.04  0.00  0.00  0.61  0.00
  YS02001751YS02001754    1.00   0.00  0.00  0.00  0.92  0.00  0.00  0.08  0.03  0.00
  YS02001754YS02001757    1.00   0.00  0.00  0.00  1.00  0.00  0.00  0.00  0.27  0.00
  YS02001882YS02001884    1.00   0.06  0.00  0.00  0.93  0.00  0.00  0.00  0.00  0.00
  YS02001884YS02001887    1.00   0.03  0.01  0.00  0.96  0.00  0.00  0.00  0.00  0.00
  YS02001890YS02001895    1.00   0.00  0.07  0.00  0.93  0.00  0.00  0.00  0.00  0.00
  YS02001895YS02001898    1.00   0.07  0.00  0.00  0.92  0.00  0.01  0.00  0.00  0.00
  YS02001898YS02001901    1.00   0.06  0.01  0.00  0.93  0.00  0.00  0.00  0.02  0.00
  YS02001901YS02001904    1.00   0.06  0.00  0.00  0.94  0.00  0.00  0.00  0.00  0.00
  YS02001904YS02001907    1.00   0.00  0.06  0.00  0.94  0.00  0.00  0.00  0.00  0.00
  YS02001887YS02001890    1.00   0.00  0.00  0.00  0.99  0.00  0.01  0.00  0.00  0.00
  YS02001652YS02001649    1.00   0.00  0.00  0.00  1.00  0.00  0.00  0.00  0.27  0.00
  YS02001655YS02001652    1.00   0.00  0.00  0.00  0.92  0.00  0.00  0.08  0.03  0.00
  YS02001658YS02001655    1.00   0.00  0.06  0.00  0.90  0.04  0.00  0.00  0.67  0.00
  YS02001661YS02001658    1.00   0.06  0.00  0.00  0.00  0.94  0.00  0.00  0.74  0.00
  YS02001664YS02001661    1.00   0.05  0.00  0.00  0.95  0.00  0.00  0.00  0.86  0.00
  YSB1154YSB6556          1.00   0.04  0.00  0.00  0.96  0.00  0.00  0.00  0.02  0.00
  YSB1174YSB1171          1.00   0.03  0.01  0.00  0.96  0.00  0.00  0.00  0.00  0.00
  YSB1171HS02004479       1.00   0.02  0.00  0.00  0.97  0.00  0.00  0.01  0.13  0.00
  HS02004881HS02006253    1.00   0.03  0.00  0.00  0.68  0.01  0.00  0.27  0.49  0.00
  YS02001793JiankangQianchi    1.00   0.00  0.00  0.00  0.17  0.83  0.00  0.00  0.24  0.00
  YS02001757CaochengTiaoxuchi    1.00   0.00  0.10  0.00  0.90  0.00  0.00  0.00  0.00  0.00
  WSF200WS02003060        1.00   0.00  0.07  0.00  0.74  0.19  0.00  0.00  0.31  0.00
  1                       1.00   0.00  0.00  0.00  0.00  1.00  0.00  0.00  0.44  0.00
  2                       1.00   0.89  0.00  0.00  0.00  0.11  0.00  0.00  0.03  0.00
  3                       1.00   0.37  0.00  0.00  0.00  0.63  0.00  0.00  0.34  0.00
  4                       1.00   1.00  0.00  0.00  0.00  0.00  0.00  0.00  0.00  0.00
  
  
  *************************
  Conduit Surcharge Summary
  *************************
  
  ----------------------------------------------------------------------------
                                                           Hours        Hours 
                         --------- Hours Full --------   Above Full   Capacity
  Conduit                Both Ends  Upstream  Dnstream   Normal Flow   Limited
  ----------------------------------------------------------------------------
  WS02006229WS02006228        0.01      0.17      0.01      2.74         0.01
  WS02006256WS02006235        5.58      5.59      6.76      3.01         0.01
  WS02006252WS02006251        0.30      0.30      0.86      0.69         0.01
  WS02006251WS02006249        0.01      0.01      0.01      0.25         0.01
  WS02006249WS02006248        0.01      0.01      0.01      2.96         0.01
  WS02006247WS02006245        0.01      0.01      0.01      3.90         0.01
  WS02006242WS02006240        0.01      0.01      0.22      0.83         0.01
  WS02006240WS02006239        0.01      0.01      0.01      0.06         0.01
  WS02006239WS02006238        0.10      0.10      0.13      0.08         0.01
  WS02006238WS02006235        0.02      0.02      0.30      0.01         0.01
  WS02006235WS02006234        0.01      0.01      0.01      5.59         0.01
  WS02006234WS02006232        0.01      0.01      0.32      0.01         0.01
  WS02006232WS02006231        0.01      0.01      0.32      0.01         0.01
  WS02006231WS02006230        0.01      0.01      0.01      5.60         0.01
  WS02006230WS02006229        1.01      2.35      1.01      5.71         1.01
  WS02006228WS02006109        0.11      0.74      0.11      4.07         0.11
  WS02006111WS02006112        0.01      0.01      3.06      0.01         0.01
  WS02006110WS02006113        0.01      0.01      0.51      0.01         0.01
  WS02006109WS02006110        0.01      0.01      0.74      0.01         0.01
  WS02004404WS02004405        0.01      0.01      0.01      5.46         0.01
  WS02003072WS02003073        0.01      0.01      0.01      4.33         0.01
  YS02001759YS02001757        0.01      0.01      0.01      0.01         0.01
  YS02001649YS02001757        0.01      0.01      0.01      0.01         0.01
  YS02001754YS02001757        0.01      0.01      0.01      0.01         0.01
  YS02001793JiankangQianchi        0.01      0.01      0.49      0.01         0.01
  YS02001757CaochengTiaoxuchi        0.01      0.01      0.01      0.01         0.01
  
  
  ***************
  Pumping Summary
  ***************
  
  ---------------------------------------------------------------------------------------------------------
                                                  Min       Avg       Max     Total     Power    % Time Off
                        Percent   Number of      Flow      Flow      Flow    Volume     Usage    Pump Curve
  Pump                 Utilized   Start-Ups       LPS       LPS       LPS  10^6 ltr     Kw-hr    Low   High
  ---------------------------------------------------------------------------------------------------------
  CC-Pump-1               51.29           7      0.00    102.71    200.00     1.464      6.12    0.0  100.0
  CC-Pump-2               55.54           6      0.00    123.12    200.00     1.835      7.68    0.0  100.0
  JK-Pump-1               72.33           7      0.00     98.67    300.00     1.635     31.15    0.0    0.0
  JK-Pump-2               72.33           6      0.00     95.65    299.89     1.471     28.32    0.0    0.0
  XR-Pump-1               65.94          10      0.00     62.17     95.00     1.168     10.85    0.0    0.0
  XR-Pump-2               87.21           8      0.00     69.61     95.00     1.681     16.36    0.0    0.0
  XR-Pump-3               82.97           8      0.00     67.76     95.00     1.510     13.40    0.0    0.0
  XR-Pump-4               85.09           7      0.00     70.59     95.00     1.710     15.66    0.0    0.0
  

  Analysis begun on:  Tue Dec 21 12:09:05 2021
  Analysis ended on:  Tue Dec 21 12:09:08 2021
  Total elapsed time: 00:00:03