
  EPA STORM WATER MANAGEMENT MODEL - VERSION 5.1 (Build 5.3.0.dev0)
  --------------------------------------------------------------

  WARNING 04: minimum elevation drop used for Conduit WS02004404WS02004405
  WARNING 03: negative offset ignored for Link YS02001904YS02001907
  
  *********************************************************
  NOTE: The summary statistics displayed in this report are
  based on results found at every computational time step,  
  not just on results from each reporting time step.
  *********************************************************
  
  ****************
  Analysis Options
  ****************
  Flow Units ............... LPS
  Process Models:
    Rainfall/Runoff ........ YES
    RDII ................... NO
    Snowmelt ............... NO
    Groundwater ............ NO
    Flow Routing ........... YES
    Ponding Allowed ........ NO
    Water Quality .......... NO
  Infiltration Method ...... HORTON
  Flow Routing Method ...... DYNWAVE
  Surcharge Method ......... EXTRAN
  Starting Date ............ 08/28/2015 08:00:00
  Ending Date .............. 08/28/2015 15:50:00
  Antecedent Dry Days ...... 8.0
  Report Time Step ......... 00:01:00
  Wet Time Step ............ 00:01:00
  Dry Time Step ............ 00:01:00
  Routing Time Step ........ 5.00 sec
  Variable Time Step ....... YES
  Maximum Trials ........... 8
  Number of Threads ........ 4
  Head Tolerance ........... 0.001500 m
  
  
  **************************        Volume         Depth
  Runoff Quantity Continuity     hectare-m            mm
  **************************     ---------       -------
  Total Precipitation ......         3.415         7.477
  Evaporation Loss .........         0.000         0.000
  Infiltration Loss ........         0.866         1.897
  Surface Runoff ...........         1.613         3.532
  Final Storage ............         0.937         2.051
  Continuity Error (%) .....        -0.018
  
  
  **************************        Volume        Volume
  Flow Routing Continuity        hectare-m      10^6 ltr
  **************************     ---------     ---------
  Dry Weather Inflow .......         0.616         6.165
  Wet Weather Inflow .......         1.612        16.122
  Groundwater Inflow .......         0.000         0.000
  RDII Inflow ..............         0.000         0.000
  External Inflow ..........         0.102         1.024
  External Outflow .........         1.591        15.906
  Flooding Loss ............         0.255         2.553
  Evaporation Loss .........         0.000         0.000
  Exfiltration Loss ........         0.000         0.000
  Initial Stored Volume ....         0.076         0.761
  Final Stored Volume ......         0.622         6.223
  Continuity Error (%) .....        -2.537
  
  
  *************************
  Highest Continuity Errors
  *************************
  Node YS02001774 (33.50%)
  Node HS02004842 (24.06%)
  Node YS02001884 (16.89%)
  Node JK-storage (-12.47%)
  Node YSB1171 (5.31%)
  
  
  ***************************
  Time-Step Critical Elements
  ***************************
  Link WS02006252WS02006251 (59.90%)
  Link 3 (31.69%)
  Link WS02006238WS02006235 (2.48%)
  Link WS02006280WS02006229 (2.03%)
  
  
  ********************************
  Highest Flow Instability Indexes
  ********************************
  Link WS02006113WS02006111 (43)
  Link YS02001779YS02001774 (34)
  Link YS02001774YS02001770 (32)
  Link YS02001765YS02001762 (25)
  Link YS02001762YS02001759 (24)
  
  
  *************************
  Routing Time Step Summary
  *************************
  Minimum Time Step           :     0.27 sec
  Average Time Step           :     0.87 sec
  Maximum Time Step           :     5.00 sec
  Percent in Steady State     :    -0.00
  Average Iterations per Step :     4.47
  Percent Not Converging      :    25.70
  
  
  ***************************
  Subcatchment Runoff Summary
  ***************************
  
  ------------------------------------------------------------------------------------------------------------------------------
                            Total      Total      Total      Total     Imperv       Perv      Total       Total     Peak  Runoff
                           Precip      Runon       Evap      Infil     Runoff     Runoff     Runoff      Runoff   Runoff   Coeff
  Subcatchment                 mm         mm         mm         mm         mm         mm         mm    10^6 ltr      LPS
  ------------------------------------------------------------------------------------------------------------------------------
  sub0                       7.48       0.00       0.00       0.52       5.69       0.00       5.69        0.00     2.10   0.761
  sub1                       7.48       0.00       0.00       0.82       5.40       0.00       5.40        0.04    11.21   0.722
  sub2                       7.48       0.00       0.00       2.77       3.80       0.00       3.80        0.04     9.93   0.509
  sub3                       7.48       0.00       0.00       2.77       3.77       0.00       3.77        0.08    20.49   0.504
  sub4                       7.48       0.00       0.00       0.82       5.26       0.00       5.26        0.11    23.03   0.703
  sub5                       7.48       0.00       0.00       0.52       5.64       0.00       5.64        0.06    19.93   0.754
  sub7                       7.48       0.00       0.00       0.67       5.55       0.00       5.55        0.02     7.00   0.742
  sub8                       7.48       0.00       0.00       0.67       5.54       0.00       5.54        0.04    12.37   0.741
  sub9                       7.48       0.00       0.00       0.67       5.54       0.00       5.54        0.03     9.17   0.741
  sub10                      7.48       0.00       0.00       0.60       5.59       0.00       5.59        0.06    19.87   0.747
  sub11                      7.48       0.00       0.00       0.60       5.60       0.00       5.60        0.07    23.25   0.750
  sub12                      7.48       0.00       0.00       0.97       5.32       0.00       5.32        0.05    19.54   0.711
  sub14                      7.48       0.00       0.00       0.67       5.54       0.00       5.54        0.05    17.92   0.740
  sub15                      7.48       0.00       0.00       2.24       4.26       0.00       4.26        0.07    24.34   0.569
  sub16                      7.48       0.00       0.00       2.47       4.09       0.00       4.09        0.04    17.23   0.547
  sub17                      7.48       0.00       0.00       2.39       4.15       0.00       4.15        0.04    13.93   0.555
  sub22                      7.48       0.00       0.00       3.22       3.47       0.00       3.47        0.22    79.48   0.465
  sub23                      7.48       0.00       0.00       2.77       3.84       0.00       3.84        0.18    67.68   0.514
  sub60                      7.48       0.00       0.00       0.90       3.98       0.00       3.98        1.21   118.33   0.532
  sub61                      7.48       0.00       0.00       1.27       4.18       0.00       4.18        1.29   148.08   0.559
  sub62                      7.48       0.00       0.00       0.60       4.51       0.00       4.51        1.39   151.44   0.603
  sub63                      7.48       0.00       0.00       2.17       3.70       0.00       3.70        1.12   138.08   0.495
  sub64                      7.48       0.00       0.00       1.12       3.81       0.00       3.81        1.16   112.42   0.510
  sub65                      7.48       0.00       0.00       0.97       3.86       0.00       3.86        1.19   114.11   0.517
  sub66                      7.48       0.00       0.00       2.17       3.31       0.00       3.31        1.01   102.94   0.442
  sub67                      7.48       0.00       0.00       0.60       4.88       0.00       4.88        1.51   194.00   0.653
  sub68                      7.48       0.00       0.00       1.05       4.43       0.00       4.43        1.36   163.63   0.592
  sub69                      7.48       0.00       0.00       1.12       4.71       0.00       4.71        1.10   162.15   0.630
  sub70                      7.48       4.81       0.00       4.18       5.98       0.00       5.98        1.37   134.81   0.487
  sub71                      7.48       0.00       0.00       0.60       4.34       0.00       4.34        1.02   105.79   0.580
  sub72                      7.48       0.00       0.00       0.52       3.19       0.00       3.19        0.65    51.17   0.426
  sub73                      7.48       5.82       0.00       4.52       6.24       0.00       6.24        1.47   117.64   0.469
  sub74                      7.48       0.00       0.00       5.61       1.41       0.00       1.41        0.57    90.39   0.189
  
  
  ******************
  Node Depth Summary
  ******************
  
  ---------------------------------------------------------------------------------
                                 Average  Maximum  Maximum  Time of Max    Reported
                                   Depth    Depth      HGL   Occurrence   Max Depth
  Node                 Type       Meters   Meters   Meters  days hr:min      Meters
  ---------------------------------------------------------------------------------
  WS02001211           JUNCTION     0.62     0.74     5.58     0  06:41        0.74
  WS02001212           JUNCTION     0.35     0.44     5.51     0  06:41        0.44
  WS02001213           JUNCTION     0.58     0.68     5.44     0  06:42        0.68
  WS02003069           JUNCTION     0.41     0.50     5.09     0  02:33        0.50
  WS02003072           JUNCTION     0.48     0.57     4.94     0  02:34        0.57
  WS02003073           JUNCTION     0.28     0.34     4.41     0  02:35        0.34
  WS02003060           JUNCTION     0.37     0.45     5.38     0  02:33        0.45
  WS02003066           JUNCTION     0.23     0.30     5.85     0  02:32        0.30
  WS02003059           JUNCTION     0.64     0.73     5.42     0  06:42        0.73
  WS02003067           JUNCTION     0.57     0.70     6.02     0  02:32        0.70
  WS02004401           JUNCTION     0.66     0.85     6.85     0  02:29        0.85
  WS02004402           JUNCTION     0.69     0.88     6.84     0  02:29        0.88
  WS02004403           JUNCTION     0.71     0.89     6.82     0  02:28        0.89
  WS02004404           JUNCTION     0.79     0.96     6.81     0  02:28        0.96
  WS02004406           JUNCTION     0.80     0.96     6.79     0  02:28        0.96
  WS02004409           JUNCTION     0.48     0.66     6.43     0  02:31        0.66
  WS02004410           JUNCTION     0.50     0.68     6.40     0  02:31        0.68
  WS02004411           JUNCTION     0.52     0.69     6.37     0  02:31        0.69
  WS02004412           JUNCTION     0.53     0.69     6.33     0  02:32        0.69
  WS02004413           JUNCTION     0.69     0.85     6.32     0  02:32        0.85
  WS02004405           JUNCTION     0.78     0.96     6.81     0  02:28        0.96
  WS02006109           JUNCTION     0.74     0.98     7.59     0  02:25        0.97
  WS02006110           JUNCTION     0.73     0.93     7.51     0  02:25        0.92
  WS02006111           JUNCTION     0.21     0.29     7.00     0  02:26        0.29
  WS02006112           JUNCTION     0.83     1.08     6.96     0  02:27        1.04
  WS02006113           JUNCTION     0.33     0.46     7.35     0  02:25        0.46
  WS02006115           JUNCTION     0.55     0.75     6.89     0  02:28        0.75
  WS02006116           JUNCTION     0.63     0.83     6.87     0  02:29        0.83
  WS02006230           JUNCTION     0.70     1.00     7.75     0  02:25        1.00
  WS02006231           JUNCTION     0.46     0.66     7.79     0  02:51        0.66
  WS02006232           JUNCTION     0.60     0.80     7.84     0  02:51        0.80
  WS02006234           JUNCTION     0.51     0.74     7.90     0  02:50        0.74
  WS02006235           JUNCTION     0.54     0.78     7.94     0  02:50        0.78
  WS02006238           JUNCTION     0.56     0.80     7.95     0  02:50        0.80
  WS02006240           JUNCTION     0.46     0.73     8.02     0  02:50        0.73
  WS02006242           JUNCTION     0.51     0.80     8.07     0  02:50        0.80
  WS02006243           JUNCTION     0.39     0.69     8.11     0  02:50        0.69
  WS02006245           JUNCTION     0.37     0.66     8.15     0  02:50        0.66
  WS02006247           JUNCTION     0.39     0.67     8.17     0  02:50        0.67
  WS02006248           JUNCTION     0.34     0.60     8.19     0  02:50        0.60
  WS02006249           JUNCTION     0.38     0.62     8.21     0  02:50        0.61
  WS02006239           JUNCTION     0.52     0.78     7.99     0  02:50        0.78
  WS02006251           JUNCTION     0.36     0.64     8.31     0  02:50        0.64
  WS02006252           JUNCTION     0.32     0.59     8.83     0  02:50        0.59
  WS02006253           JUNCTION     0.39     0.67     8.32     0  02:50        0.67
  WS02006256           JUNCTION     1.00     1.20     8.14     0  02:30        1.20
  WS02004138           JUNCTION     0.14     0.19     7.44     0  06:40        0.19
  WS02004407           JUNCTION     0.22     0.30     6.61     0  02:28        0.30
  WS02006228           JUNCTION     0.73     1.01     7.67     0  02:25        1.01
  WS02006229           JUNCTION     0.70     1.01     7.71     0  02:25        1.01
  WS02006280           JUNCTION     0.06     0.18     8.45     0  02:14        0.18
  WS02006284           JUNCTION     0.35     0.53     8.92     0  02:14        0.53
  WS02006287           JUNCTION     0.08     0.26     9.21     0  02:14        0.26
  WSF200               JUNCTION     0.21     0.30     5.54     0  02:32        0.30
  HS02004901           JUNCTION     0.11     0.27    10.09     0  02:12        0.27
  HS02004881           JUNCTION     0.01     0.03     9.06     0  02:15        0.03
  HS02004876           JUNCTION     0.04     0.11     9.14     0  02:09        0.11
  HS02004870           JUNCTION     0.01     0.05     9.34     0  02:15        0.05
  HS02004862           JUNCTION     0.01     0.06     9.45     0  02:15        0.06
  HS02004856           JUNCTION     0.08     0.12     9.54     0  02:15        0.12
  HS02004852           JUNCTION     0.01     0.04     9.55     0  02:16        0.04
  HS02004848           JUNCTION     0.01     0.04     9.64     0  02:15        0.04
  HS02004842           JUNCTION     0.33     0.37     9.64     0  02:14        0.37
  HS02004837           JUNCTION     0.03     0.06     9.64     0  02:14        0.06
  HS02004830           JUNCTION     0.04     0.07     9.54     0  02:15        0.07
  HS02004824           JUNCTION     0.02     0.05     9.45     0  02:18        0.05
  HS02004817           JUNCTION     0.43     0.56     9.41     0  02:15        0.56
  HS02004807           JUNCTION     0.12     0.24     9.41     0  02:15        0.24
  HS02004802           JUNCTION     0.15     0.28     9.40     0  02:15        0.28
  HS02004799           JUNCTION     0.10     0.31     9.52     0  02:13        0.31
  HS02004792           JUNCTION     0.03     0.13     9.65     0  02:12        0.13
  HS02004788           JUNCTION     0.02     0.09     9.99     0  02:13        0.09
  HS02004785           JUNCTION     0.04     0.16    10.06     0  02:12        0.16
  HS02004777           JUNCTION     0.14     0.29    10.09     0  02:12        0.29
  HS02004770           JUNCTION     0.11     0.26    10.09     0  02:12        0.26
  HS02004480           JUNCTION     0.07     0.25     9.49     0  02:13        0.25
  HS02004479           JUNCTION     0.10     0.28     9.49     0  02:13        0.28
  HS02004478           JUNCTION     0.05     0.16     9.39     0  02:14        0.16
  YS02001745           JUNCTION     0.58     0.85     8.36     0  05:04        0.85
  YS02001748           JUNCTION     0.97     1.35     8.43     0  03:53        1.28
  YS02001751           JUNCTION     1.15     1.84     8.72     0  03:08        1.49
  YS02001754           JUNCTION     1.40     1.88     8.49     0  03:08        1.76
  YS02001762           JUNCTION     1.60     1.98     8.38     0  05:07        1.97
  YS02001765           JUNCTION     1.55     1.93     8.38     0  05:02        1.92
  YS02001767           JUNCTION     1.52     1.89     8.38     0  05:02        1.88
  YS02001770           JUNCTION     1.51     1.88     8.38     0  05:02        1.87
  YS02001774           JUNCTION     1.58     1.96     8.38     0  05:02        1.95
  YS02001779           JUNCTION     1.33     1.68     8.37     0  02:59        1.68
  YS02001882           JUNCTION     0.33     0.58     7.30     0  02:46        0.58
  YS02001884           JUNCTION     0.42     0.68     7.29     0  02:45        0.68
  YS02001759           JUNCTION     1.63     2.02     8.38     0  05:01        2.01
  YS02001887           JUNCTION     0.50     0.76     7.29     0  02:47        0.76
  YS02001890           JUNCTION     0.53     0.79     7.29     0  02:45        0.79
  YS02001898           JUNCTION     0.30     0.54     7.28     0  02:50        0.54
  YS02001901           JUNCTION     0.42     0.67     7.28     0  02:44        0.67
  YS02001904           JUNCTION     0.40     0.65     7.28     0  02:48        0.64
  YS02001907           JUNCTION     0.73     0.99     7.28     0  02:49        0.98
  YS02001910           JUNCTION     0.52     0.77     7.28     0  02:53        0.77
  YS02001915           JUNCTION     0.32     0.56     7.27     0  02:49        0.56
  YS02001918           JUNCTION     0.10     0.21     7.27     0  02:49        0.20
  YS02001619           JUNCTION     1.12     1.51     8.44     0  03:59        1.46
  YS02001629           JUNCTION     1.47     1.85     8.40     0  03:59        1.83
  YS02001641           JUNCTION     1.57     1.93     8.37     0  04:33        1.92
  YS02001644           JUNCTION     1.57     1.92     8.35     0  04:16        1.92
  YS02001652           JUNCTION     1.42     2.10     8.69     0  02:51        1.79
  YS02001655           JUNCTION     1.18     2.20     9.05     0  02:51        1.56
  YS02001920           JUNCTION     0.20     0.28     7.29     0  02:50        0.28
  YS02001923           JUNCTION     0.08     0.10     7.36     0  03:01        0.10
  YS02001926           JUNCTION     0.16     0.21     7.65     0  03:01        0.21
  YS02001929           JUNCTION     0.08     0.11     7.80     0  03:01        0.11
  YS02001658           JUNCTION     0.91     1.29     8.44     0  04:37        1.28
  YS02001661           JUNCTION     0.68     1.05     8.45     0  04:42        1.04
  YS02001664           JUNCTION     0.28     0.53     8.45     0  04:41        0.52
  YS02001622           JUNCTION     1.14     1.52     8.43     0  03:59        1.48
  YS02001633           JUNCTION     1.56     1.94     8.39     0  04:32        1.92
  YS02001649           JUNCTION     1.61     1.99     8.38     0  05:00        1.98
  YS02001757           JUNCTION     1.73     2.12     8.38     0  05:01        2.11
  YS02001895           JUNCTION     0.30     0.54     7.28     0  02:45        0.54
  YS02001625           JUNCTION     1.42     1.78     8.38     0  03:55        1.78
  YS02163301           JUNCTION     1.50     1.88     8.39     0  04:33        1.86
  YS02163601           JUNCTION     1.61     1.98     8.38     0  04:18        1.97
  YS02164001           JUNCTION     1.55     1.92     8.37     0  04:21        1.90
  YS02001647           JUNCTION     1.40     1.76     8.37     0  05:00        1.75
  YSB1154              JUNCTION     0.24     0.43     9.49     0  02:13        0.43
  YSB6556              JUNCTION     0.14     0.32     9.49     0  02:13        0.32
  YSB1174              JUNCTION     0.19     0.38     9.49     0  02:13        0.38
  YSB1171              JUNCTION     0.39     0.59     9.49     0  02:13        0.59
  YS02006553           JUNCTION     0.73     0.99     7.27     0  02:51        0.99
  YS02006561           JUNCTION     0.16     0.30     6.96     0  02:51        0.30
  YS02006556           JUNCTION     0.70     0.96     7.27     0  02:48        0.96
  YS02006558           JUNCTION     0.75     1.01     7.27     0  02:46        1.00
  YS02001783           JUNCTION     0.31     0.70     6.84     0  03:06        0.69
  YS02001784           JUNCTION     0.35     0.75     6.82     0  03:06        0.75
  YS02001786           JUNCTION     0.32     0.74     6.77     0  03:06        0.74
  YS02001788           JUNCTION     0.27     0.76     6.73     0  03:06        0.75
  YS02001790           JUNCTION     0.36     1.09     6.74     0  03:03        1.04
  YS02001791           JUNCTION     0.34     1.37     6.84     0  03:01        1.17
  YS02001793           JUNCTION     0.46     3.60     8.43     0  02:57        1.78
  WS02004139           JUNCTION     0.56     0.68     5.59     0  06:41        0.68
  WSC                  OUTFALL      0.28     0.34     1.01     0  02:35        0.34
  3                    OUTFALL      0.08     0.20     6.20     0  02:30        0.20
  4                    OUTFALL      0.01     0.11     7.11     0  02:50        0.11
  5                    OUTFALL      0.00     0.00     5.00     0  00:00        0.00
  JK-storage           STORAGE      2.01     5.80     6.60     0  03:04        5.80
  CC-storage           STORAGE      0.97     1.37     8.37     0  05:04        1.37
  XR-storage           STORAGE      6.95     7.72     5.72     0  03:01        7.72
  
  
  *******************
  Node Inflow Summary
  *******************
  
  -------------------------------------------------------------------------------------------------
                                  Maximum  Maximum                  Lateral       Total        Flow
                                  Lateral    Total  Time of Max      Inflow      Inflow     Balance
                                   Inflow   Inflow   Occurrence      Volume      Volume       Error
  Node                 Type           LPS      LPS  days hr:min    10^6 ltr    10^6 ltr     Percent
  -------------------------------------------------------------------------------------------------
  WS02001211           JUNCTION      7.35   367.64     0  06:40       0.207        6.04       0.584
  WS02001212           JUNCTION      0.00   353.46     0  06:41           0        6.01       0.357
  WS02001213           JUNCTION      0.00   348.24     0  06:41           0        5.99       0.356
  WS02003069           JUNCTION      0.32   730.38     0  02:33     0.00902        13.2       0.196
  WS02003072           JUNCTION      0.00   730.12     0  02:34           0        13.2       0.249
  WS02003073           JUNCTION      1.82   731.86     0  02:34      0.0514        13.2       0.274
  WS02003060           JUNCTION     16.53   730.19     0  02:32       0.466        13.2       0.188
  WS02003066           JUNCTION      0.00   531.46     0  02:32           0        6.83       0.050
  WS02003059           JUNCTION      0.00   343.46     0  06:42           0        5.97       0.607
  WS02003067           JUNCTION      0.00   531.29     0  02:32           0        6.83       0.112
  WS02004401           JUNCTION      0.00   542.31     0  02:27           0        7.03       0.272
  WS02004402           JUNCTION      0.00   540.67     0  02:27           0        7.01       0.259
  WS02004403           JUNCTION      0.00   539.66     0  02:28           0           7       0.237
  WS02004404           JUNCTION      0.16   539.09     0  02:28     0.00457        6.98       0.182
  WS02004406           JUNCTION      0.00   539.14     0  02:28           0        6.95       0.443
  WS02004409           JUNCTION      0.00   538.30     0  02:28           0        6.92       0.180
  WS02004410           JUNCTION      0.00   535.13     0  02:30           0         6.9       0.206
  WS02004411           JUNCTION      0.00   533.15     0  02:30           0        6.89       0.214
  WS02004412           JUNCTION      0.00   532.00     0  02:31           0        6.88       0.237
  WS02004413           JUNCTION      0.00   531.53     0  02:31           0        6.86       0.363
  WS02004405           JUNCTION      0.04   538.97     0  02:28     0.00107        6.97       0.272
  WS02006109           JUNCTION      1.23   541.28     0  02:25      0.0347        7.11       0.291
  WS02006110           JUNCTION      0.00   541.25     0  02:25           0        7.09       0.268
  WS02006111           JUNCTION      0.00   562.10     0  02:25           0        7.06       0.060
  WS02006112           JUNCTION     13.93   555.28     0  02:26      0.0356        7.09       0.385
  WS02006113           JUNCTION      0.00   541.49     0  02:25           0        7.07       0.125
  WS02006115           JUNCTION      0.00   559.24     0  02:27           0        7.07       0.244
  WS02006116           JUNCTION      0.00   544.58     0  02:27           0        7.05       0.234
  WS02006230           JUNCTION     10.28   396.31     0  04:52        0.29        5.97       0.229
  WS02006231           JUNCTION      0.00   387.61     0  04:52           0        5.68       0.167
  WS02006232           JUNCTION      0.00   387.81     0  04:51           0         5.7       0.277
  WS02006234           JUNCTION      0.00   389.01     0  04:51           0        5.71       0.132
  WS02006235           JUNCTION      0.00   388.91     0  04:51           0        5.75       0.176
  WS02006238           JUNCTION      0.00   335.03     0  03:21           0        3.87       0.193
  WS02006240           JUNCTION      0.00   334.75     0  03:21           0        3.86       0.286
  WS02006242           JUNCTION      0.00   335.53     0  03:21           0        3.86       0.357
  WS02006243           JUNCTION      0.00   334.11     0  03:21           0        3.85      -0.054
  WS02006245           JUNCTION      0.00   333.62     0  03:20           0        3.86       0.301
  WS02006247           JUNCTION      0.00   334.35     0  03:20           0        3.87       0.174
  WS02006248           JUNCTION      0.00   335.94     0  03:20           0        3.87       0.097
  WS02006249           JUNCTION      0.00   421.51     0  02:50           0        3.99       0.265
  WS02006239           JUNCTION      0.00   335.23     0  03:21           0        3.86       0.225
  WS02006251           JUNCTION      0.08   423.38     0  02:50     0.00217        4.02       0.217
  WS02006252           JUNCTION      0.00   399.95     0  05:40           0         3.8       0.011
  WS02006253           JUNCTION      2.10    63.55     0  02:15      0.0046       0.223       1.695
  WS02006256           JUNCTION      0.00   600.00     0  02:30           0        4.55       0.062
  WS02004138           JUNCTION      0.00   379.92     0  06:40           0        5.87       0.089
  WS02004407           JUNCTION      0.00   538.71     0  02:28           0        6.92       0.086
  WS02006228           JUNCTION      0.00   540.04     0  02:25           0        7.09       0.202
  WS02006229           JUNCTION      0.00   539.79     0  02:25           0        7.11       0.195
  WS02006280           JUNCTION      0.00   314.59     0  02:15           0        1.15       0.006
  WS02006284           JUNCTION      0.10   314.56     0  02:14      0.0027        1.16       0.098
  WS02006287           JUNCTION      0.00   314.40     0  02:14           0        1.15       0.063
  WSF200               JUNCTION      0.00   531.52     0  02:32           0        6.82       0.044
  HS02004901           JUNCTION     17.23    17.23     0  02:08      0.0428       0.043       4.264
  HS02004881           JUNCTION      7.00    61.98     0  02:15      0.0187       0.199       0.156
  HS02004876           JUNCTION     11.21    54.99     0  02:14      0.0359       0.181       0.296
  HS02004870           JUNCTION     12.37    44.00     0  02:14      0.0354       0.145       0.073
  HS02004862           JUNCTION     10.13    32.43     0  02:15      0.0411        0.11       0.153
  HS02004856           JUNCTION      9.17    22.37     0  02:14      0.0266      0.0703       2.090
  HS02004852           JUNCTION      0.00    13.77     0  02:15           0      0.0438       0.119
  HS02004848           JUNCTION     20.49    20.49     0  02:17      0.0848      0.0848       0.051
  HS02004842           JUNCTION      0.00     7.49     0  02:26           0       0.054      31.686
  HS02004837           JUNCTION     26.22    32.33     0  02:14       0.241       0.282       0.289
  HS02004830           JUNCTION      0.15    32.45     0  02:14     0.00423       0.272       0.456
  HS02004824           JUNCTION     23.08    55.25     0  02:17       0.111       0.382       0.141
  HS02004817           JUNCTION      0.60    55.85     0  02:18      0.0169       0.398       4.369
  HS02004807           JUNCTION     23.25    77.11     0  02:16      0.0651       0.447       0.955
  HS02004802           JUNCTION      0.00    77.68     0  02:17           0       0.442       0.925
  HS02004799           JUNCTION     17.92   202.50     0  02:12      0.0527        0.62       0.370
  HS02004792           JUNCTION     79.76   184.87     0  02:12       0.227       0.567       0.071
  HS02004788           JUNCTION     26.01   107.46     0  02:12        0.12       0.341       0.114
  HS02004785           JUNCTION      0.15    81.81     0  02:12     0.00423       0.223       0.217
  HS02004777           JUNCTION      0.03    82.21     0  02:11    0.000846       0.223       2.373
  HS02004770           JUNCTION     67.68    83.50     0  02:10       0.183       0.224       1.398
  HS02004480           JUNCTION      0.00   238.93     0  02:13           0       0.727       0.106
  HS02004479           JUNCTION      0.00    37.18     0  02:14           0        0.12       0.614
  HS02004478           JUNCTION      0.00   314.37     0  02:14           0        1.15       0.052
  YS02001745           JUNCTION    118.33   191.47     0  03:42        1.21        1.23       0.858
  YS02001748           JUNCTION      0.04   399.42     0  02:54     0.00127        1.25       1.833
  YS02001751           JUNCTION      0.01   441.63     0  02:55     0.00031        1.21       1.827
  YS02001754           JUNCTION      0.26   215.08     0  02:56     0.00733        1.16       2.109
  YS02001762           JUNCTION      0.00   179.10     0  02:52           0        1.32       1.625
  YS02001765           JUNCTION      0.00   178.51     0  02:52           0        1.32       1.877
  YS02001767           JUNCTION      0.54   177.79     0  02:48      0.0151        1.34       2.733
  YS02001770           JUNCTION    151.59   181.38     0  02:28        1.39        1.41       2.240
  YS02001774           JUNCTION      0.00    57.38     0  02:11           0      0.0754      50.387
  YS02001779           JUNCTION      0.01    46.67     0  02:27    0.000141      0.0326      89.748
  YS02001882           JUNCTION      0.00     5.78     0  02:06           0      0.0086      27.350
  YS02001884           JUNCTION      0.00    16.58     0  02:09           0       0.031      20.323
  YS02001759           JUNCTION    148.12   325.61     0  02:59        1.29        2.57       0.899
  YS02001887           JUNCTION    194.45   200.35     0  02:39        1.52        1.54       0.494
  YS02001890           JUNCTION      0.00   199.05     0  02:43           0         1.5       0.551
  YS02001898           JUNCTION      0.00   199.55     0  02:41           0        1.49       0.170
  YS02001901           JUNCTION      0.00   201.71     0  02:38           0        1.49       0.398
  YS02001904           JUNCTION      0.00   200.70     0  02:41           0        1.49       0.370
  YS02001907           JUNCTION      0.00   376.54     0  02:55           0        3.22       0.708
  YS02001910           JUNCTION      0.00   177.33     0  02:55           0        1.74       0.613
  YS02001915           JUNCTION    105.81   164.49     0  02:56        1.02        1.75       0.287
  YS02001918           JUNCTION      0.00    55.40     0  02:56           0       0.727       0.188
  YS02001619           JUNCTION    102.94   102.94     0  02:50        1.01        1.01       1.191
  YS02001629           JUNCTION      0.00   212.11     0  03:13           0       0.938       3.123
  YS02001641           JUNCTION      0.00   249.94     0  02:31           0        2.03       1.040
  YS02001644           JUNCTION    112.46   351.47     0  02:31        1.16        3.24       0.808
  YS02001652           JUNCTION      0.00   248.38     0  02:51           0        1.06       2.099
  YS02001655           JUNCTION      0.15   466.76     0  02:47     0.00434        1.12       1.934
  YS02001920           JUNCTION      2.87    54.05     0  03:01      0.0809       0.729       0.320
  YS02001923           JUNCTION      0.04    51.18     0  03:01     0.00106       0.649       0.057
  YS02001926           JUNCTION      0.05    51.21     0  03:01     0.00147        0.65       0.397
  YS02001929           JUNCTION     51.17    51.17     0  03:01       0.649       0.649       0.056
  YS02001658           JUNCTION      0.00   428.98     0  02:49           0        1.21       1.674
  YS02001661           JUNCTION      0.00   371.27     0  04:23           0         1.7       0.828
  YS02001664           JUNCTION    138.08   330.88     0  04:23        1.12        1.63       0.333
  YS02001622           JUNCTION      0.00   148.19     0  03:14           0           1       3.254
  YS02001633           JUNCTION    114.31   260.15     0  02:32        1.19        2.09       1.543
  YS02001649           JUNCTION      0.00   561.79     0  02:53           0           4       0.942
  YS02001757           JUNCTION      0.00   899.13     0  02:30           0        7.52       1.243
  YS02001895           JUNCTION      0.00   199.12     0  02:39           0         1.5       0.274
  YS02001625           JUNCTION      0.00   212.25     0  03:13           0       0.973       4.187
  YS02163301           JUNCTION      0.00   153.70     0  02:32           0       0.924       2.645
  YS02163601           JUNCTION      0.11   258.50     0  02:32      0.0031        2.04       1.489
  YS02164001           JUNCTION      0.00   256.39     0  02:32           0        2.03       0.980
  YS02001647           JUNCTION      0.00   346.80     0  02:50           0        3.01       0.914
  YSB1154              JUNCTION     19.93    19.93     0  02:12      0.0639      0.0652       2.264
  YSB6556              JUNCTION      0.00    19.93     0  02:14           0      0.0661       1.924
  YSB1174              JUNCTION     19.54    19.54     0  02:07      0.0464      0.0474       2.783
  YSB1171              JUNCTION      0.00    37.14     0  02:13           0       0.119       5.610
  YS02006553           JUNCTION      0.00   375.09     0  02:51           0        3.21       0.458
  YS02006561           JUNCTION      0.00   564.03     0  02:47           0        4.55       0.002
  YS02006556           JUNCTION      0.00   368.64     0  02:55           0        3.22       0.331
  YS02006558           JUNCTION    164.51   544.77     0  02:51        1.39        4.58       0.115
  YS02001783           JUNCTION      0.00   524.97     0  02:51           0        4.54       0.040
  YS02001784           JUNCTION      1.06   520.88     0  02:51      0.0299        4.57       0.064
  YS02001786           JUNCTION      0.06   518.17     0  02:40     0.00159        4.57       0.061
  YS02001788           JUNCTION      0.07   518.04     0  02:41       0.002        4.57       0.035
  YS02001790           JUNCTION      0.15   520.39     0  03:01     0.00437        4.57       0.042
  YS02001791           JUNCTION      0.00   517.41     0  02:52           0        4.57       0.022
  YS02001793           JUNCTION      0.00   773.11     0  02:56           0        4.58      -0.007
  WS02004139           JUNCTION      0.32   378.31     0  06:40     0.00905        5.88       0.657
  WSC                  OUTFALL       0.00   731.70     0  02:35           0        13.2       0.000
  3                    OUTFALL       0.00   488.79     0  02:30           0        2.63       0.000
  4                    OUTFALL       0.00   129.76     0  02:50           0       0.113       0.000
  5                    OUTFALL       0.00     0.00     0  00:00           0           0       0.000 ltr
  JK-storage           STORAGE       0.00  1122.97     0  02:56           0        4.73     -11.089
  CC-storage           STORAGE       0.00   899.47     0  02:30           0        7.36       0.853
  XR-storage           STORAGE     391.57   391.57     0  02:47        7.67        8.27      -0.002
  
  
  **********************
  Node Surcharge Summary
  **********************
  
  Surcharging occurs when water rises above the top of the highest conduit.
  ---------------------------------------------------------------------
                                               Max. Height   Min. Depth
                                   Hours       Above Crown    Below Rim
  Node                 Type      Surcharged         Meters       Meters
  ---------------------------------------------------------------------
  WS02006109           JUNCTION        1.12          0.155        1.665
  WS02006110           JUNCTION        0.11          0.015        1.835
  WS02006112           JUNCTION        0.39          0.076        1.604
  WS02006232           JUNCTION        0.92          0.097        1.383
  WS02006234           JUNCTION        0.11          0.020        1.220
  WS02006235           JUNCTION        0.28          0.066        1.224
  WS02006238           JUNCTION        0.50          0.085        1.345
  WS02006240           JUNCTION        0.09          0.021        1.369
  WS02006242           JUNCTION        0.26          0.069        0.751
  WS02006239           JUNCTION        0.14          0.038        1.252
  WS02006252           JUNCTION        1.02          0.193        0.907
  WS02006228           JUNCTION        0.99          0.185        2.015
  YS02001748           JUNCTION        3.80          0.269        0.921
  YS02001751           JUNCTION        4.40          0.841        0.359
  YS02001754           JUNCTION        5.08          0.834        0.316
  YS02001762           JUNCTION        5.46          0.983        0.167
  YS02001765           JUNCTION        5.42          0.932        0.168
  YS02001767           JUNCTION        5.40          0.892        0.138
  YS02001770           JUNCTION        5.36          0.855        0.065
  YS02001774           JUNCTION        5.45          0.956        0.094
  YS02001779           JUNCTION        4.94          0.680        0.000
  YS02001759           JUNCTION        5.47          1.017        0.193
  YS02001619           JUNCTION        4.33          0.508        0.102
  YS02001629           JUNCTION        4.36          0.470        0.000
  YS02001641           JUNCTION        5.43          0.934        0.166
  YS02001644           JUNCTION        5.44          0.920        0.000
  YS02001652           JUNCTION        5.19          1.069        0.061
  YS02001655           JUNCTION        4.53          1.200        0.000
  YS02001658           JUNCTION        3.80          0.294        1.006
  YS02001622           JUNCTION        4.39          0.521        0.099
  YS02001633           JUNCTION        5.42          0.918        0.142
  YS02001649           JUNCTION        5.46          0.994        0.056
  YS02001757           JUNCTION        5.52          1.117        0.093
  YS02001625           JUNCTION        5.25          0.780        0.000
  YS02163301           JUNCTION        5.40          0.876        0.154
  YS02163601           JUNCTION        5.46          0.984        0.096
  YS02164001           JUNCTION        5.43          0.916        0.184
  YS02001647           JUNCTION        5.23          0.759        0.141
  YS02001790           JUNCTION        1.13          0.293        0.864
  YS02001791           JUNCTION        1.26          0.566        1.354
  YS02001793           JUNCTION        1.48          2.600        0.000
  
  
  *********************
  Node Flooding Summary
  *********************
  
  Flooding refers to all water that overflows a node, whether it ponds or not.
  --------------------------------------------------------------------------
                                                             Total   Maximum
                                 Maximum   Time of Max       Flood    Ponded
                        Hours       Rate    Occurrence      Volume     Depth
  Node                 Flooded       LPS   days hr:min    10^6 ltr    Meters
  --------------------------------------------------------------------------
  YS02001779              0.23      5.15      0  05:01       0.001     0.000
  YS02001644              1.16    291.06      0  05:09       0.277     0.000
  YS02001655              0.01    188.29      0  03:14       0.000     0.000
  YS02001625              0.05      8.57      0  03:59       0.000     0.000
  YS02001793              0.01    372.08      0  02:57       0.000     0.000
  JK-storage              0.91    417.20      0  03:20       0.766     0.000
  XR-storage              3.82    284.03      0  03:01       1.507     0.000
  
  
  **********************
  Storage Volume Summary
  **********************
  
  --------------------------------------------------------------------------------------------------
                         Average     Avg  Evap Exfil       Maximum     Max    Time of Max    Maximum
                          Volume    Pcnt  Pcnt  Pcnt        Volume    Pcnt     Occurrence    Outflow
  Storage Unit           1000 m3    Full  Loss  Loss       1000 m3    Full    days hr:min        LPS
  --------------------------------------------------------------------------------------------------
  JK-storage               0.101      35     0     0         0.291     100       0  03:04     600.00
  CC-storage               2.716      17     0     0         3.810      24       0  05:04     399.95
  XR-storage               0.834      90     0     0         0.926     100       0  03:01     379.92
  
  
  ***********************
  Outfall Loading Summary
  ***********************
  
  -----------------------------------------------------------
                         Flow       Avg       Max       Total
                         Freq      Flow      Flow      Volume
  Outfall Node           Pcnt       LPS       LPS    10^6 ltr
  -----------------------------------------------------------
  WSC                   99.99    522.52    731.70      13.158
  3                     75.23    173.06    488.79       2.635
  4                     16.07     33.86    129.76       0.113
  5                      0.00      0.00      0.00       0.000
  -----------------------------------------------------------
  System                47.83    729.44   1206.84      15.906
  
  
  ********************
  Link Flow Summary
  ********************
  
  -----------------------------------------------------------------------------
                                 Maximum  Time of Max   Maximum    Max/    Max/
                                  |Flow|   Occurrence   |Veloc|    Full    Full
  Link                 Type          LPS  days hr:min     m/sec    Flow   Depth
  -----------------------------------------------------------------------------
  WS02003066WSF200     CONDUIT    531.52     0  02:32      2.74    0.09    0.23
  WS02006287WS02006284 CONDUIT    314.47     0  02:14      1.87    0.15    0.27
  WS02006284WS02006280 CONDUIT    314.59     0  02:15      2.11    0.13    0.25
  WS02006280WS02006229 CONDUIT    314.60     0  02:15      3.39    0.07    0.18
  WS02006229WS02006228 CONDUIT    540.04     0  02:25      1.07    1.79    1.00
  WS02006256WS02006235 CONDUIT    166.25     0  00:01      2.58    1.76    1.00
  WS02006253WS02006251 CONDUIT     64.02     0  02:20      0.57    0.19    0.93
  WS02006252WS02006251 CONDUIT    400.04     0  05:40      3.18    1.47    1.00
  WS02006251WS02006249 CONDUIT    421.51     0  02:50      1.16    1.22    0.90
  WS02006249WS02006248 CONDUIT    335.94     0  03:20      1.10    1.84    0.86
  WS02006248WS02006247 CONDUIT    334.35     0  03:20      1.07    0.73    0.90
  WS02006247WS02006245 CONDUIT    333.62     0  03:20      1.05    2.65    0.94
  WS02006245WS02006243 CONDUIT    334.11     0  03:21      1.15    0.99    0.96
  WS02006243WS02006242 CONDUIT    335.53     0  03:21      1.01    0.72    0.99
  WS02006242WS02006240 CONDUIT    334.75     0  03:21      0.90    1.33    1.00
  WS02006240WS02006239 CONDUIT    335.23     0  03:21      0.94    1.05    1.00
  WS02006239WS02006238 CONDUIT    335.03     0  03:21      0.90    1.07    1.00
  WS02006238WS02006235 CONDUIT    334.88     0  03:21      1.25    0.75    1.00
  WS02006235WS02006234 CONDUIT    389.01     0  04:51      1.02    4.10    1.00
  WS02006234WS02006232 CONDUIT    387.81     0  04:51      1.13    0.78    1.00
  WS02006232WS02006231 CONDUIT    387.61     0  04:52      1.06    0.81    0.97
  WS02006231WS02006230 CONDUIT    386.03     0  04:52      1.31    5.86    0.91
  WS02006230WS02006229 CONDUIT    395.56     0  04:52      1.03    8.80    1.00
  WS02006228WS02006109 CONDUIT    540.05     0  02:25      1.07    2.36    1.00
  WS02006116WS02004401 CONDUIT    542.31     0  02:27      0.77    0.75    0.84
  WS02006115WS02006116 CONDUIT    544.58     0  02:27      0.87    0.70    0.76
  WS02006113WS02006111 CONDUIT    562.10     0  02:25      2.46    0.67    0.46
  WS02006112WS02006115 CONDUIT    559.24     0  02:27      0.77    0.33    0.87
  WS02006111WS02006112 CONDUIT    546.98     0  02:26      1.52    0.26    0.67
  WS02006110WS02006113 CONDUIT    541.49     0  02:25      1.28    0.49    0.79
  WS02006109WS02006110 CONDUIT    541.25     0  02:25      1.08    1.04    1.00
  WS02004411WS02004412 CONDUIT    532.00     0  02:31      0.92    0.76    0.69
  WS02004401WS02004402 CONDUIT    540.67     0  02:27      0.77    0.65    0.86
  WS02004413WS02003067 CONDUIT    531.29     0  02:32      1.10    0.23    0.59
  WS02004412WS02004413 CONDUIT    531.53     0  02:31      0.81    0.36    0.77
  WS02004410WS02004411 CONDUIT    533.15     0  02:30      0.94    0.73    0.68
  WS02004409WS02004410 CONDUIT    535.13     0  02:30      0.97    0.69    0.67
  WS02004407WS02004409 CONDUIT    538.30     0  02:28      1.48    0.19    0.48
  WS02004406WS02004407 CONDUIT    538.71     0  02:28      1.04    0.24    0.63
  WS02004405WS02004406 CONDUIT    539.14     0  02:28      0.70    1.06    0.96
  WS02004404WS02004405 CONDUIT    538.93     0  02:28      0.84    5.28    0.96
  WS02004403WS02004404 CONDUIT    538.93     0  02:28      0.74    0.39    0.93
  WS02004402WS02004403 CONDUIT    539.66     0  02:28      0.75    0.78    0.88
  WS02004139WS02001211 CONDUIT    360.29     0  06:40      0.81    0.46    0.55
  WS02004138WS02004139 CONDUIT    377.99     0  06:40      3.33    0.08    0.41
  WS02003067WS02003066 CONDUIT    531.46     0  02:32      1.20    0.17    0.41
  WS02001213WS02003059 CONDUIT    343.46     0  06:42      0.80    0.57    0.69
  WS02001212WS02001213 CONDUIT    348.24     0  06:41      1.19    0.54    0.40
  WS02001211WS02001212 CONDUIT    353.46     0  06:41      0.73    0.27    0.59
  WS02003072WS02003073 CONDUIT    730.04     0  02:34      1.58    1.58    0.43
  WS02003069WS02003072 CONDUIT    730.12     0  02:34      1.50    0.35    0.45
  WS02003060WS02003069 CONDUIT    730.06     0  02:33      1.76    0.29    0.40
  WS02003059WS02003060 CONDUIT    339.28     0  06:42      0.82    0.22    0.58
  HS02004901HS02004770 CONDUIT     16.18     0  02:11      0.06    0.06    0.38
  HS02004876HS02004881 CONDUIT     55.65     0  02:15      0.81    0.59    0.10
  HS02004870HS02004876 CONDUIT     43.98     0  02:15      0.55    0.03    0.11
  HS02004842HS02004848 CONDUIT      7.49     0  02:26      0.04    0.00    0.29
  HS02004837HS02004842 CONDUIT      7.78     0  02:27      0.41    0.00    0.30
  HS02004830HS02004837 CONDUIT     32.30     0  02:14      0.50    0.03    0.09
  HS02004824HS02004830 CONDUIT     32.45     0  02:15      0.54    0.04    0.09
  HS02004817HS02004824 CONDUIT     55.25     0  02:18      0.18    0.02    0.44
  HS02004770HS02004777 CONDUIT     82.18     0  02:11      0.30    0.15    0.39
  HS02004799HS02004480 CONDUIT    202.20     0  02:12      0.74    0.26    0.39
  HS02004792HS02004799 CONDUIT    184.75     0  02:12      0.84    0.11    0.31
  HS02004788HS02004792 CONDUIT    107.36     0  02:13      0.97    0.07    0.16
  HS02004785HS02004788 CONDUIT     81.71     0  02:13      0.63    0.62    0.18
  HS02004777HS02004785 CONDUIT     81.66     0  02:12      0.36    0.10    0.32
  HS02004480HS02004478 CONDUIT    238.85     0  02:13      1.15    1.01    0.30
  HS02004479HS02004480 CONDUIT     37.51     0  02:15      0.16    0.04    0.38
  HS02004862HS02004870 CONDUIT     32.39     0  02:15      0.56    0.03    0.08
  HS02004848HS02004852 CONDUIT     13.77     0  02:15      0.38    0.02    0.05
  HS02004856HS02004862 CONDUIT     22.33     0  02:15      0.42    0.02    0.08
  HS02004852HS02004856 CONDUIT     13.72     0  02:16      0.18    0.02    0.11
  HS02004802HS02004478 CONDUIT     78.37     0  02:17      0.37    0.07    0.31
  HS02004478WS02006287 CONDUIT    314.40     0  02:14      1.57    0.09    0.22
  HS02004817HS02004807 CONDUIT     56.81     0  02:19      0.14    0.03    0.57
  HS02004807HS02004802 CONDUIT     77.68     0  02:17      0.31    0.15    0.36
  YS02001759YS02001757 CONDUIT    328.36     0  02:59      0.42    0.23    1.00
  YS02001762YS02001759 CONDUIT    183.28     0  02:59      0.23    0.21    1.00
  YS02001765YS02001762 CONDUIT    179.10     0  02:52      0.23    0.17    1.00
  YS02001770YS02001767 CONDUIT    177.26     0  02:48      0.32    0.70    1.00
  YS02001774YS02001770 CONDUIT     57.38     0  02:11      0.14    0.04    1.00
  YS02001779YS02001774 CONDUIT     46.66     0  02:27      0.09    0.02    1.00
  YS02001649YS02001757 CONDUIT    561.39     0  02:53      0.71    0.34    1.00
  YS02001767YS02001765 CONDUIT    178.51     0  02:52      0.26    0.22    1.00
  YS02006561YS02001783 CONDUIT    524.97     0  02:51      2.03    0.27    0.61
  YS02001783YS02001784 CONDUIT    519.82     0  02:51      1.46    0.72    0.90
  YS02001784YS02001785 CONDUIT    518.11     0  02:40      1.57    1.21    0.93
  YS02001788YS02001790 CONDUIT    520.24     0  03:01      2.12    0.38    0.97
  YS02001790YS02001791 CONDUIT    517.41     0  02:52      2.51    0.56    1.00
  YS02001791YS02001793 CONDUIT    722.84     0  02:57      5.11    0.31    1.00
  YS02001910YS02001907 CONDUIT    179.25     0  02:55      0.49    0.10    0.87
  YS02001786YS02001788 CONDUIT    517.97     0  02:41      2.05    1.00    0.93
  YS02001915YS02001910 CONDUIT    177.33     0  02:55      0.45    0.09    0.66
  YS02001918YS02001915 CONDUIT     59.23     0  02:56      0.44    0.03    0.38
  YS02001923YS02001920 CONDUIT     51.18     0  03:01      0.54    0.02    0.19
  YS02001926YS02001923 CONDUIT     51.14     0  03:01      0.60    0.07    0.17
  YS02001929YS02001926 CONDUIT     51.16     0  03:01      0.64    0.02    0.16
  YS02001920YS02001918 CONDUIT     55.40     0  02:56      0.54    0.05    0.24
  YS02001629YS02163301 CONDUIT    153.70     0  02:32      0.20    0.19    1.00
  YS02001619YS02001622 CONDUIT    148.19     0  03:14      0.74    0.22    1.00
  YS02001622YS02001625 CONDUIT    212.25     0  03:13      0.31    0.11    1.00
  YS02001625YS02001629 CONDUIT    212.11     0  03:13      0.30    0.10    1.00
  YS02163301YS02001633 CONDUIT    154.19     0  02:32      0.20    0.14    1.00
  YS02163601YS02164001 CONDUIT    256.39     0  02:32      0.33    0.23    1.00
  YS02164001YS02001641 CONDUIT    249.94     0  02:31      0.32    0.34    1.00
  YS02001641YS02001644 CONDUIT    247.75     0  02:31      0.32    0.80    1.00
  YS02001647YS02001649 CONDUIT    415.98     0  02:31      0.53    0.22    1.00
  YS02006553YS02006556 CONDUIT    368.64     0  02:55      0.48    0.32    0.95
  YS02006556YS02006558 CONDUIT    383.77     0  02:51      0.49    0.30    0.98
  YSB6556YSB1171       CONDUIT     20.34     0  02:15      0.08    0.02    0.65
  YS02001907YS02006553 CONDUIT    375.09     0  02:51      0.42    0.44    1.00
  YS02006558YS02006561 CONDUIT    564.03     0  02:47      2.89    1.25    0.66
  YS02001633YS02163601 CONDUIT    258.39     0  02:32      0.33    0.27    1.00
  YS02001644YS02001647 CONDUIT    346.80     0  02:50      0.45    0.20    1.00
  YS02001745YS02001748 CONDUIT    265.73     0  03:42      1.56    0.10    0.92
  YS02001748YS02001751 CONDUIT    441.61     0  02:55      1.21    0.22    1.00
  YS02001751YS02001754 CONDUIT    214.82     0  02:56      1.05    0.10    1.00
  YS02001754YS02001757 CONDUIT    220.23     0  02:54      0.33    0.09    1.00
  YS02001882YS02001884 CONDUIT      5.78     0  02:06      0.06    0.01    0.60
  YS02001884YS02001887 CONDUIT     16.58     0  02:09      0.07    0.02    0.69
  YS02001890YS02001895 CONDUIT    199.12     0  02:39      0.37    0.09    0.66
  YS02001895YS02001898 CONDUIT    199.55     0  02:41      0.51    0.35    0.52
  YS02001898YS02001901 CONDUIT    201.71     0  02:38      0.41    0.13    0.60
  YS02001901YS02001904 CONDUIT    200.70     0  02:41      0.38    0.31    0.65
  YS02001904YS02001907 CONDUIT    204.58     0  02:46      0.30    0.07    0.81
  YS02001887YS02001890 CONDUIT    199.05     0  02:43      0.32    0.34    0.75
  YS02001652YS02001649 CONDUIT    249.56     0  02:51      0.36    0.12    1.00
  YS02001655YS02001652 CONDUIT    248.38     0  02:51      1.11    0.12    1.00
  YS02001658YS02001655 CONDUIT    466.61     0  02:47      1.40    0.20    1.00
  YS02001661YS02001658 CONDUIT    364.66     0  03:38      1.63    0.14    0.99
  YS02001664YS02001661 CONDUIT    371.27     0  04:23      1.38    0.12    0.70
  YSB1154YSB6556       CONDUIT     19.93     0  02:14      0.19    0.04    0.54
  YSB1174YSB1171       CONDUIT     18.17     0  02:08      0.07    0.03    0.66
  YSB1171HS02004479    CONDUIT     37.18     0  02:14      0.54    0.02    0.51
  HS02004881HS02006253 CONDUIT     61.96     0  02:15      1.99    0.01    0.25
  YS02001793JiankangQianchi CONDUIT   1122.97     0  02:56     11.39    0.09    1.00
  YS02001757CaochengTiaoxuchi CONDUIT    899.47     0  02:30      1.97    0.40    1.00
  WSF200WS02003060     CONDUIT    531.75     0  02:32      1.80    0.12    0.31
  1                    CONDUIT    731.70     0  02:35      3.06    0.25    0.34
  2                    CONDUIT    129.76     0  02:50      5.21    0.31    0.38
  3                    CONDUIT    488.79     0  02:30      9.75    0.78    0.67
  4                    CONDUIT      0.00     0  00:00      0.00    0.00    0.00
  CC-Pump-1            PUMP       200.00     0  02:14              1.00
  CC-Pump-2            PUMP       200.00     0  03:10              1.00
  JK-Pump-1            PUMP       300.00     0  00:00              1.00
  JK-Pump-2            PUMP       300.00     0  02:30              1.00
  XR-Pump-1            PUMP        95.00     0  00:00              1.00
  XR-Pump-2            PUMP        95.00     0  00:00              1.00
  XR-Pump-3            PUMP        95.00     0  00:20              1.00
  XR-Pump-4            PUMP        95.00     0  00:00              1.00
  
  
  ***************************
  Flow Classification Summary
  ***************************
  
  -------------------------------------------------------------------------------------
                      Adjusted    ---------- Fraction of Time in Flow Class ---------- 
                       /Actual         Up    Down  Sub   Sup   Up    Down  Norm  Inlet 
  Conduit               Length    Dry  Dry   Dry   Crit  Crit  Crit  Crit  Ltd   Ctrl  
  -------------------------------------------------------------------------------------
  WS02003066WSF200        1.00   0.06  0.00  0.00  0.00  0.94  0.00  0.00  0.70  0.00
  WS02006287WS02006284    1.00   0.04  0.01  0.00  0.68  0.26  0.00  0.00  0.76  0.00
  WS02006284WS02006280    1.00   0.05  0.00  0.00  0.00  0.00  0.00  0.95  0.00  0.00
  WS02006280WS02006229    1.00   0.05  0.00  0.00  0.00  0.00  0.00  0.95  0.00  0.00
  WS02006229WS02006228    1.00   0.00  0.00  0.00  0.99  0.00  0.00  0.01  0.00  0.00
  WS02006256WS02006235    1.00   0.00  0.00  0.00  1.00  0.00  0.00  0.00  0.00  0.00
  WS02006253WS02006251    1.00   0.03  0.01  0.00  0.96  0.00  0.00  0.00  0.00  0.00
  WS02006252WS02006251    1.00   0.08  0.00  0.00  0.00  0.00  0.92  0.00  0.00  0.00
  WS02006251WS02006249    1.00   0.00  0.00  0.00  1.00  0.00  0.00  0.00  0.25  0.00
  WS02006249WS02006248    1.00   0.00  0.02  0.00  0.91  0.00  0.07  0.00  0.00  0.00
  WS02006248WS02006247    1.00   0.02  0.00  0.00  0.98  0.00  0.00  0.00  0.15  0.00
  WS02006247WS02006245    1.00   0.02  0.00  0.00  0.98  0.00  0.00  0.00  0.00  0.00
  WS02006245WS02006243    1.00   0.01  0.00  0.00  0.94  0.00  0.00  0.04  0.01  0.00
  WS02006243WS02006242    1.00   0.01  0.00  0.00  0.99  0.00  0.00  0.00  0.26  0.00
  WS02006242WS02006240    1.00   0.00  0.00  0.00  1.00  0.00  0.00  0.00  0.00  0.00
  WS02006240WS02006239    1.00   0.00  0.00  0.00  0.96  0.00  0.00  0.04  0.02  0.00
  WS02006239WS02006238    1.00   0.00  0.00  0.00  1.00  0.00  0.00  0.00  0.08  0.00
  WS02006238WS02006235    1.00   0.00  0.00  0.00  1.00  0.00  0.00  0.00  0.00  0.00
  WS02006235WS02006234    1.00   0.00  0.00  0.00  0.96  0.00  0.04  0.00  0.00  0.00
  WS02006234WS02006232    1.00   0.00  0.00  0.00  1.00  0.00  0.00  0.00  0.10  0.00
  WS02006232WS02006231    1.00   0.00  0.00  0.00  0.99  0.00  0.00  0.00  0.00  0.00
  WS02006231WS02006230    1.00   0.00  0.00  0.00  0.44  0.00  0.56  0.00  0.00  0.00
  WS02006230WS02006229    1.00   0.00  0.00  0.00  0.98  0.00  0.00  0.02  0.01  0.00
  WS02006228WS02006109    1.00   0.00  0.00  0.00  1.00  0.00  0.00  0.00  0.00  0.00
  WS02006116WS02004401    1.00   0.03  0.00  0.00  0.97  0.00  0.00  0.00  0.00  0.00
  WS02006115WS02006116    1.00   0.03  0.00  0.00  0.97  0.00  0.00  0.01  0.00  0.00
  WS02006113WS02006111    1.00   0.02  0.00  0.00  0.00  0.98  0.00  0.00  0.12  0.00
  WS02006112WS02006115    1.00   0.02  0.00  0.00  0.97  0.00  0.00  0.00  0.00  0.00
  WS02006111WS02006112    1.00   0.02  0.00  0.00  0.97  0.00  0.00  0.00  0.98  0.00
  WS02006110WS02006113    1.00   0.01  0.01  0.00  0.98  0.00  0.00  0.00  0.00  0.00
  WS02006109WS02006110    1.00   0.00  0.01  0.00  0.98  0.00  0.01  0.00  0.00  0.00
  WS02004411WS02004412    1.00   0.04  0.00  0.00  0.96  0.00  0.00  0.00  0.00  0.00
  WS02004401WS02004402    1.00   0.03  0.00  0.00  0.97  0.00  0.00  0.00  0.00  0.00
  WS02004413WS02003067    1.00   0.04  0.02  0.00  0.00  0.00  0.94  0.00  0.00  0.00
  WS02004412WS02004413    1.00   0.04  0.00  0.00  0.96  0.00  0.00  0.00  0.04  0.00
  WS02004410WS02004411    1.00   0.04  0.00  0.00  0.96  0.00  0.00  0.00  0.04  0.00
  WS02004409WS02004410    1.00   0.04  0.00  0.00  0.96  0.00  0.00  0.00  0.04  0.00
  WS02004407WS02004409    1.00   0.04  0.00  0.00  0.96  0.00  0.00  0.00  0.89  0.00
  WS02004406WS02004407    1.00   0.00  0.04  0.00  0.96  0.00  0.00  0.00  0.00  0.00
  WS02004405WS02004406    1.00   0.00  0.00  0.00  1.00  0.00  0.00  0.00  0.00  0.00
  WS02004404WS02004405    1.00   0.00  0.00  0.00  1.00  0.00  0.00  0.00  0.00  0.00
  WS02004403WS02004404    1.00   0.00  0.03  0.00  0.97  0.00  0.00  0.00  0.01  0.00
  WS02004402WS02004403    1.00   0.03  0.00  0.00  0.97  0.00  0.00  0.00  0.00  0.00
  WS02004139WS02001211    1.00   0.00  0.00  0.00  1.00  0.00  0.00  0.00  0.00  0.00
  WS02004138WS02004139    1.00   0.00  0.00  0.00  0.99  0.01  0.00  0.00  1.00  0.00
  WS02003067WS02003066    1.00   0.06  0.00  0.00  0.94  0.00  0.00  0.00  0.00  0.00
  WS02001213WS02003059    1.00   0.00  0.00  0.00  0.99  0.00  0.00  0.00  0.00  0.00
  WS02001212WS02001213    1.00   0.00  0.00  0.00  0.84  0.00  0.15  0.00  0.00  0.00
  WS02001211WS02001212    1.00   0.00  0.00  0.00  1.00  0.00  0.00  0.00  0.00  0.00
  WS02003072WS02003073    1.00   0.00  0.00  0.00  0.00  0.00  0.00  1.00  0.00  0.00
  WS02003069WS02003072    1.00   0.00  0.00  0.00  0.99  0.01  0.00  0.00  0.27  0.00
  WS02003060WS02003069    1.00   0.00  0.00  0.00  0.98  0.02  0.00  0.00  0.11  0.00
  WS02003059WS02003060    1.00   0.00  0.00  0.00  1.00  0.00  0.00  0.00  0.01  0.00
  HS02004901HS02004770    1.00   0.04  0.00  0.00  0.95  0.00  0.00  0.00  0.02  0.00
  HS02004876HS02004881    1.00   0.02  0.00  0.00  0.98  0.00  0.00  0.00  0.00  0.00
  HS02004870HS02004876    1.00   0.01  0.00  0.00  0.99  0.00  0.00  0.00  0.95  0.00
  HS02004842HS02004848    1.00   0.00  0.05  0.00  0.95  0.00  0.00  0.00  0.67  0.00
  HS02004837HS02004842    1.00   0.00  0.00  0.00  0.99  0.01  0.00  0.00  0.11  0.00
  HS02004830HS02004837    1.00   0.00  0.00  0.00  1.00  0.00  0.00  0.00  0.99  0.00
  HS02004824HS02004830    1.00   0.00  0.00  0.00  1.00  0.00  0.00  0.00  0.00  0.00
  HS02004817HS02004824    1.00   0.00  0.00  0.00  1.00  0.00  0.00  0.00  1.00  0.00
  HS02004770HS02004777    1.00   0.00  0.04  0.00  0.95  0.00  0.00  0.00  0.07  0.00
  HS02004799HS02004480    1.00   0.00  0.03  0.00  0.94  0.00  0.03  0.00  0.00  0.00
  HS02004792HS02004799    1.00   0.00  0.00  0.00  0.99  0.01  0.00  0.00  0.98  0.00
  HS02004788HS02004792    1.00   0.00  0.00  0.00  0.99  0.01  0.00  0.00  0.98  0.00
  HS02004785HS02004788    1.00   0.00  0.00  0.00  1.00  0.00  0.00  0.00  0.00  0.00
  HS02004777HS02004785    1.00   0.00  0.00  0.00  1.00  0.00  0.00  0.00  0.20  0.00
  HS02004480HS02004478    1.00   0.05  0.00  0.00  0.72  0.00  0.00  0.23  0.00  0.00
  HS02004479HS02004480    1.00   0.03  0.00  0.00  0.97  0.00  0.00  0.00  0.15  0.00
  HS02004862HS02004870    1.00   0.00  0.00  0.00  1.00  0.00  0.00  0.00  0.06  0.00
  HS02004848HS02004852    1.00   0.05  0.00  0.00  0.95  0.00  0.00  0.00  0.71  0.00
  HS02004856HS02004862    1.00   0.00  0.07  0.00  0.93  0.00  0.00  0.00  0.75  0.00
  HS02004852HS02004856    1.00   0.04  0.01  0.00  0.95  0.00  0.00  0.00  0.83  0.00
  HS02004802HS02004478    1.00   0.05  0.00  0.00  0.95  0.00  0.00  0.00  0.01  0.00
  HS02004478WS02006287    1.00   0.05  0.00  0.00  0.82  0.12  0.00  0.00  0.73  0.00
  HS02004817HS02004807    1.00   0.00  0.05  0.00  0.95  0.00  0.00  0.00  0.00  0.00
  HS02004807HS02004802    1.00   0.05  0.00  0.00  0.95  0.00  0.00  0.00  0.01  0.00
  YS02001759YS02001757    1.00   0.00  0.00  0.00  1.00  0.00  0.00  0.00  0.17  0.00
  YS02001762YS02001759    1.00   0.00  0.00  0.00  1.00  0.00  0.00  0.00  0.04  0.00
  YS02001765YS02001762    1.00   0.00  0.00  0.00  1.00  0.00  0.00  0.00  0.21  0.00
  YS02001770YS02001767    1.00   0.00  0.00  0.00  1.00  0.00  0.00  0.00  0.00  0.00
  YS02001774YS02001770    1.00   0.00  0.05  0.00  0.95  0.00  0.00  0.00  0.06  0.00
  YS02001779YS02001774    1.00   0.00  0.00  0.00  1.00  0.00  0.00  0.00  0.25  0.00
  YS02001649YS02001757    1.00   0.00  0.00  0.00  1.00  0.00  0.00  0.00  0.19  0.00
  YS02001767YS02001765    1.00   0.00  0.00  0.00  1.00  0.00  0.00  0.00  0.01  0.00
  YS02006561YS02001783    1.00   0.07  0.00  0.00  0.17  0.77  0.00  0.00  0.64  0.00
  YS02001783YS02001784    1.00   0.00  0.07  0.00  0.93  0.00  0.00  0.00  0.00  0.00
  YS02001784YS02001785    1.00   0.00  0.00  0.00  1.00  0.00  0.00  0.00  0.24  0.00
  YS02001788YS02001790    1.00   0.00  0.00  0.00  0.28  0.72  0.00  0.00  0.69  0.00
  YS02001790YS02001791    1.00   0.00  0.00  0.00  0.24  0.76  0.00  0.00  0.48  0.00
  YS02001791YS02001793    1.00   0.00  0.00  0.00  0.25  0.75  0.00  0.00  0.02  0.00
  YS02001910YS02001907    1.00   0.00  0.00  0.00  0.97  0.00  0.00  0.02  0.13  0.00
  YS02001786YS02001788    1.00   0.00  0.00  0.00  0.26  0.74  0.00  0.00  0.00  0.00
  YS02001915YS02001910    1.00   0.00  0.00  0.00  0.99  0.01  0.00  0.00  0.23  0.00
  YS02001918YS02001915    1.00   0.00  0.01  0.00  0.98  0.01  0.00  0.00  0.67  0.00
  YS02001923YS02001920    1.00   0.00  0.00  0.00  1.00  0.00  0.00  0.00  1.00  0.00
  YS02001926YS02001923    1.00   0.00  0.03  0.00  0.00  0.00  0.97  0.00  0.00  0.00
  YS02001929YS02001926    1.00   0.00  0.04  0.00  0.96  0.00  0.00  0.00  0.87  0.00
  YS02001920YS02001918    1.00   0.00  0.01  0.00  0.99  0.00  0.00  0.00  0.00  0.00
  YS02001629YS02163301    1.00   0.06  0.00  0.00  0.94  0.00  0.00  0.00  0.00  0.00
  YS02001619YS02001622    1.00   0.04  0.00  0.00  0.96  0.00  0.00  0.00  0.00  0.00
  YS02001622YS02001625    1.00   0.05  0.00  0.00  0.95  0.00  0.00  0.00  0.12  0.00
  YS02001625YS02001629    1.00   0.05  0.02  0.00  0.92  0.00  0.01  0.00  0.00  0.00
  YS02163301YS02001633    1.00   0.00  0.06  0.00  0.94  0.00  0.00  0.00  0.00  0.00
  YS02163601YS02164001    1.00   0.00  0.04  0.00  0.96  0.00  0.00  0.00  0.00  0.00
  YS02164001YS02001641    1.00   0.01  0.03  0.00  0.96  0.00  0.00  0.00  0.07  0.00
  YS02001641YS02001644    1.00   0.00  0.01  0.00  0.99  0.00  0.00  0.00  0.00  0.00
  YS02001647YS02001649    1.00   0.00  0.07  0.00  0.93  0.00  0.00  0.00  0.01  0.00
  YS02006553YS02006556    1.00   0.01  0.00  0.00  0.99  0.00  0.00  0.00  0.03  0.00
  YS02006556YS02006558    1.00   0.00  0.00  0.00  1.00  0.00  0.00  0.00  0.00  0.00
  YSB6556YSB1171          1.00   0.03  0.01  0.00  0.96  0.00  0.00  0.00  0.00  0.00
  YS02001907YS02006553    1.00   0.00  0.02  0.00  0.97  0.00  0.00  0.00  0.00  0.00
  YS02006558YS02006561    1.00   0.07  0.00  0.00  0.00  0.93  0.00  0.00  0.60  0.00
  YS02001633YS02163601    1.00   0.00  0.01  0.00  0.99  0.00  0.00  0.00  0.19  0.00
  YS02001644YS02001647    1.00   0.00  0.07  0.00  0.93  0.00  0.00  0.00  0.00  0.00
  YS02001745YS02001748    1.00   0.00  0.00  0.00  0.90  0.01  0.00  0.10  0.06  0.00
  YS02001748YS02001751    1.00   0.00  0.00  0.00  0.98  0.02  0.00  0.00  0.22  0.00
  YS02001751YS02001754    1.00   0.00  0.00  0.00  0.93  0.00  0.00  0.07  0.01  0.00
  YS02001754YS02001757    1.00   0.00  0.00  0.00  0.99  0.01  0.00  0.00  0.25  0.00
  YS02001882YS02001884    1.00   0.06  0.00  0.00  0.94  0.00  0.00  0.00  0.00  0.00
  YS02001884YS02001887    1.00   0.03  0.01  0.00  0.96  0.00  0.00  0.00  0.00  0.00
  YS02001890YS02001895    1.00   0.00  0.06  0.00  0.94  0.00  0.00  0.00  0.00  0.00
  YS02001895YS02001898    1.00   0.06  0.00  0.00  0.93  0.00  0.01  0.00  0.00  0.00
  YS02001898YS02001901    1.00   0.06  0.00  0.00  0.94  0.00  0.00  0.00  0.02  0.00
  YS02001901YS02001904    1.00   0.06  0.00  0.00  0.94  0.00  0.00  0.00  0.00  0.00
  YS02001904YS02001907    1.00   0.00  0.06  0.00  0.94  0.00  0.00  0.00  0.00  0.00
  YS02001887YS02001890    1.00   0.00  0.00  0.00  0.97  0.00  0.02  0.00  0.00  0.00
  YS02001652YS02001649    1.00   0.00  0.00  0.00  1.00  0.00  0.00  0.00  0.25  0.00
  YS02001655YS02001652    1.00   0.00  0.00  0.00  0.93  0.00  0.00  0.07  0.01  0.00
  YS02001658YS02001655    1.00   0.00  0.05  0.00  0.92  0.02  0.00  0.00  0.08  0.00
  YS02001661YS02001658    1.00   0.05  0.00  0.00  0.90  0.05  0.00  0.00  0.07  0.00
  YS02001664YS02001661    1.00   0.04  0.00  0.00  0.84  0.11  0.00  0.00  0.33  0.00
  YSB1154YSB6556          1.00   0.04  0.00  0.00  0.96  0.00  0.00  0.00  0.02  0.00
  YSB1174YSB1171          1.00   0.03  0.01  0.00  0.96  0.00  0.00  0.00  0.00  0.00
  YSB1171HS02004479       1.00   0.03  0.00  0.00  0.97  0.00  0.00  0.00  0.13  0.00
  HS02004881HS02006253    1.00   0.03  0.00  0.00  0.70  0.04  0.00  0.23  0.56  0.00
  YS02001793JiankangQianchi    1.00   0.00  0.00  0.00  0.50  0.50  0.00  0.00  0.28  0.00
  YS02001757CaochengTiaoxuchi    1.00   0.00  0.08  0.00  0.92  0.00  0.00  0.00  0.00  0.00
  WSF200WS02003060        1.00   0.00  0.06  0.00  0.50  0.43  0.00  0.00  0.15  0.00
  1                       1.00   0.00  0.00  0.00  0.00  1.00  0.00  0.00  0.32  0.00
  2                       1.00   0.84  0.00  0.00  0.00  0.16  0.00  0.00  0.04  0.00
  3                       1.00   0.25  0.00  0.00  0.00  0.75  0.00  0.00  0.29  0.00
  4                       1.00   1.00  0.00  0.00  0.00  0.00  0.00  0.00  0.00  0.00
  
  
  *************************
  Conduit Surcharge Summary
  *************************
  
  ----------------------------------------------------------------------------
                                                           Hours        Hours 
                         --------- Hours Full --------   Above Full   Capacity
  Conduit                Both Ends  Upstream  Dnstream   Normal Flow   Limited
  ----------------------------------------------------------------------------
  WS02006229WS02006228        0.99      1.22      0.99      3.97         0.99
  WS02006256WS02006235        5.69      5.69      6.77      3.23         0.01
  WS02006252WS02006251        0.36      0.36      1.02      0.85         0.01
  WS02006251WS02006249        0.01      0.01      0.01      0.38         0.01
  WS02006249WS02006248        0.01      0.01      0.01      3.87         0.01
  WS02006247WS02006245        0.01      0.01      0.01      4.48         0.01
  WS02006243WS02006242        0.01      0.01      0.26      0.01         0.01
  WS02006242WS02006240        0.09      0.09      0.51      1.02         0.01
  WS02006240WS02006239        0.11      0.11      0.14      0.07         0.01
  WS02006239WS02006238        0.43      0.43      0.50      0.09         0.01
  WS02006238WS02006235        0.40      0.40      0.76      0.01         0.01
  WS02006235WS02006234        0.11      0.11      0.28      5.68         0.01
  WS02006234WS02006232        0.17      0.17      0.92      0.01         0.01
  WS02006232WS02006231        0.01      0.01      0.92      0.01         0.01
  WS02006231WS02006230        0.01      0.01      0.01      5.68         0.01
  WS02006230WS02006229        1.88      3.24      1.88      5.78         1.88
  WS02006228WS02006109        1.12      1.55      1.12      5.16         1.12
  WS02006112WS02006115        0.01      0.01      0.39      0.01         0.01
  WS02006111WS02006112        0.01      0.01      4.10      0.01         0.01
  WS02006110WS02006113        0.01      0.01      1.38      0.01         0.01
  WS02006109WS02006110        0.11      0.11      1.55      0.11         0.01
  WS02004405WS02004406        0.01      0.01      0.01      0.25         0.01
  WS02004404WS02004405        0.01      0.01      0.01      5.69         0.01
  WS02003072WS02003073        0.01      0.01      0.01      4.59         0.01
  HS02004480HS02004478        0.01      0.01      0.01      0.04         0.01
  YS02001759YS02001757        5.47      5.47      5.52      0.01         0.01
  YS02001762YS02001759        5.46      5.46      5.47      0.01         0.02
  YS02001765YS02001762        5.42      5.42      5.46      0.01         0.01
  YS02001770YS02001767        5.40      5.41      5.40      0.01         0.66
  YS02001774YS02001770        5.36      5.36      5.45      0.01         0.01
  YS02001779YS02001774        4.94      4.94      5.45      0.01         0.01
  YS02001649YS02001757        5.46      5.46      5.52      0.01         0.01
  YS02001767YS02001765        5.40      5.40      5.42      0.01         0.02
  YS02001784YS02001785        0.01      0.01      0.01      0.87         0.01
  YS02001788YS02001790        0.01      0.01      1.13      0.01         0.01
  YS02001790YS02001791        1.13      1.13      1.26      0.01         0.01
  YS02001791YS02001793        1.26      1.26      1.55      0.01         0.01
  YS02001629YS02163301        5.39      5.39      5.40      0.01         0.01
  YS02001619YS02001622        4.33      4.33      4.39      0.01         0.01
  YS02001622YS02001625        4.39      4.39      5.25      0.01         0.01
  YS02001625YS02001629        4.36      4.36      5.25      0.01         0.01
  YS02163301YS02001633        5.40      5.40      5.43      0.01         0.01
  YS02163601YS02164001        5.43      5.43      5.46      0.01         0.01
  YS02164001YS02001641        5.43      5.43      5.43      0.01         0.02
  YS02001641YS02001644        5.43      5.43      5.44      0.01         0.93
  YS02001647YS02001649        5.23      5.23      5.46      0.01         0.01
  YS02006556YS02006558        0.01      0.01      0.01      0.01         0.01
  YS02001907YS02006553        0.89      0.89      1.10      0.01         0.01
  YS02006558YS02006561        0.01      0.01      0.01      0.68         0.01
  YS02001633YS02163601        5.42      5.42      5.46      0.01         0.01
  YS02001644YS02001647        5.23      5.23      5.44      0.01         0.01
  YS02001745YS02001748        0.01      0.01      3.80      0.01         0.01
  YS02001748YS02001751        4.02      4.02      4.40      0.01         0.01
  YS02001751YS02001754        4.40      4.40      5.08      0.01         0.01
  YS02001754YS02001757        5.24      5.24      5.52      0.01         0.01
  YS02001652YS02001649        5.24      5.24      5.46      0.01         0.01
  YS02001655YS02001652        4.53      4.53      5.19      0.01         0.01
  YS02001658YS02001655        3.80      3.80      4.53      0.01         0.01
  YS02001661YS02001658        0.01      0.01      3.80      0.01         0.01
  YS02001664YS02001661        0.01      0.01      0.30      0.01         0.01
  YS02001793JiankangQianchi        1.48      1.48      2.58      0.01         0.01
  YS02001757CaochengTiaoxuchi        4.11      4.11      5.52      0.01         0.01
  
  
  ***************
  Pumping Summary
  ***************
  
  ---------------------------------------------------------------------------------------------------------
                                                  Min       Avg       Max     Total     Power    % Time Off
                        Percent   Number of      Flow      Flow      Flow    Volume     Usage    Pump Curve
  Pump                 Utilized   Start-Ups       LPS       LPS       LPS  10^6 ltr     Kw-hr    Low   High
  ---------------------------------------------------------------------------------------------------------
  CC-Pump-1               57.19           6      0.00    117.98    200.00     1.882      3.12    0.0   11.6
  CC-Pump-2               51.06           4      0.00    136.47    200.00     1.920      2.51    0.0    0.9
  JK-Pump-1               55.33           6      0.00    177.29    300.00     2.457     30.87    0.0    0.0
  JK-Pump-2               68.07           7      0.00    137.18    300.00     2.088     28.09    0.0    0.0
  XR-Pump-1               78.72           8      0.00     67.68     95.00     1.511     14.02    0.0    0.0
  XR-Pump-2               82.97           7      0.00     66.82     95.00     1.596     15.50    0.0    0.0
  XR-Pump-3               76.56           9      0.00     64.48     95.00     1.453     13.42    0.0    0.0
  XR-Pump-4               74.46           9      0.00     62.05     95.00     1.311     13.17    0.0    0.0
  

  Analysis begun on:  Tue Dec 21 12:11:36 2021
  Analysis ended on:  Tue Dec 21 12:11:39 2021
  Total elapsed time: 00:00:03