
  EPA STORM WATER MANAGEMENT MODEL - VERSION 5.1 (Build 5.3.0.dev0)
  --------------------------------------------------------------

  WARNING 04: minimum elevation drop used for Conduit WS02004404WS02004405
  WARNING 03: negative offset ignored for Link YS02001904YS02001907
  
  *********************************************************
  NOTE: The summary statistics displayed in this report are
  based on results found at every computational time step,  
  not just on results from each reporting time step.
  *********************************************************
  
  ****************
  Analysis Options
  ****************
  Flow Units ............... LPS
  Process Models:
    Rainfall/Runoff ........ YES
    RDII ................... NO
    Snowmelt ............... NO
    Groundwater ............ NO
    Flow Routing ........... YES
    Ponding Allowed ........ NO
    Water Quality .......... NO
  Infiltration Method ...... HORTON
  Flow Routing Method ...... DYNWAVE
  Surcharge Method ......... EXTRAN
  Starting Date ............ 08/28/2015 08:00:00
  Ending Date .............. 08/28/2015 15:50:00
  Antecedent Dry Days ...... 8.0
  Report Time Step ......... 00:01:00
  Wet Time Step ............ 00:01:00
  Dry Time Step ............ 00:01:00
  Routing Time Step ........ 5.00 sec
  Variable Time Step ....... YES
  Maximum Trials ........... 8
  Number of Threads ........ 4
  Head Tolerance ........... 0.001500 m
  
  
  **************************        Volume         Depth
  Runoff Quantity Continuity     hectare-m            mm
  **************************     ---------       -------
  Total Precipitation ......         2.691         5.892
  Evaporation Loss .........         0.000         0.000
  Infiltration Loss ........         0.676         1.480
  Surface Runoff ...........         1.133         2.480
  Final Storage ............         0.883         1.933
  Continuity Error (%) .....        -0.018
  
  
  **************************        Volume        Volume
  Flow Routing Continuity        hectare-m      10^6 ltr
  **************************     ---------     ---------
  Dry Weather Inflow .......         0.616         6.165
  Wet Weather Inflow .......         1.132        11.321
  Groundwater Inflow .......         0.000         0.000
  RDII Inflow ..............         0.000         0.000
  External Inflow ..........         0.102         1.024
  External Outflow .........         1.434        14.341
  Flooding Loss ............         0.106         1.056
  Evaporation Loss .........         0.000         0.000
  Exfiltration Loss ........         0.000         0.000
  Initial Stored Volume ....         0.076         0.761
  Final Stored Volume ......         0.464         4.637
  Continuity Error (%) .....        -3.966
  
  
  *************************
  Highest Continuity Errors
  *************************
  Node HS02004842 (28.52%)
  Node YS02001884 (22.76%)
  Node JK-storage (-20.08%)
  Node YS02001774 (16.01%)
  Node YSB1171 (6.99%)
  
  
  ***************************
  Time-Step Critical Elements
  ***************************
  Link WS02006252WS02006251 (61.61%)
  Link 3 (30.07%)
  Link WS02006280WS02006229 (2.39%)
  Link WS02006238WS02006235 (2.07%)
  
  
  ********************************
  Highest Flow Instability Indexes
  ********************************
  Link WS02006113WS02006111 (53)
  Link WS02006111WS02006112 (17)
  Link YS02001629YS02163301 (9)
  Link YS02164001YS02001641 (8)
  Link YS02001644YS02001647 (8)
  
  
  *************************
  Routing Time Step Summary
  *************************
  Minimum Time Step           :     0.49 sec
  Average Time Step           :     0.96 sec
  Maximum Time Step           :     5.00 sec
  Percent in Steady State     :    -0.00
  Average Iterations per Step :     2.78
  Percent Not Converging      :     9.30
  
  
  ***************************
  Subcatchment Runoff Summary
  ***************************
  
  ------------------------------------------------------------------------------------------------------------------------------
                            Total      Total      Total      Total     Imperv       Perv      Total       Total     Peak  Runoff
                           Precip      Runon       Evap      Infil     Runoff     Runoff     Runoff      Runoff   Runoff   Coeff
  Subcatchment                 mm         mm         mm         mm         mm         mm         mm    10^6 ltr      LPS
  ------------------------------------------------------------------------------------------------------------------------------
  sub0                       5.89       0.00       0.00       0.41       4.21       0.00       4.21        0.00     1.47   0.715
  sub1                       5.89       0.00       0.00       0.65       3.99       0.00       3.99        0.03     7.65   0.677
  sub2                       5.89       0.00       0.00       2.18       2.81       0.00       2.81        0.03     6.74   0.476
  sub3                       5.89       0.00       0.00       2.18       2.77       0.00       2.77        0.06    13.82   0.470
  sub4                       5.89       0.00       0.00       0.65       3.85       0.00       3.85        0.08    15.45   0.654
  sub5                       5.89       0.00       0.00       0.41       4.17       0.00       4.17        0.05    13.60   0.707
  sub7                       5.89       0.00       0.00       0.53       4.11       0.00       4.11        0.01     4.82   0.697
  sub8                       5.89       0.00       0.00       0.53       4.10       0.00       4.10        0.03     8.49   0.696
  sub9                       5.89       0.00       0.00       0.53       4.10       0.00       4.10        0.02     6.29   0.695
  sub10                      5.89       0.00       0.00       0.47       4.13       0.00       4.13        0.05    13.58   0.701
  sub11                      5.89       0.00       0.00       0.47       4.15       0.00       4.15        0.05    15.97   0.704
  sub12                      5.89       0.00       0.00       0.77       3.94       0.00       3.94        0.03    13.59   0.668
  sub14                      5.89       0.00       0.00       0.53       4.09       0.00       4.09        0.04    12.29   0.695
  sub15                      5.89       0.00       0.00       1.77       3.15       0.00       3.15        0.05    16.66   0.534
  sub16                      5.89       0.00       0.00       1.94       3.03       0.00       3.03        0.03    11.93   0.514
  sub17                      5.89       0.00       0.00       1.89       3.07       0.00       3.07        0.03     9.64   0.522
  sub22                      5.89       0.00       0.00       2.53       2.57       0.00       2.57        0.16    54.70   0.436
  sub23                      5.89       0.00       0.00       2.18       2.84       0.00       2.84        0.14    46.61   0.482
  sub60                      5.89       0.00       0.00       0.71       2.76       0.00       2.76        0.84    76.77   0.469
  sub61                      5.89       0.00       0.00       1.00       2.95       0.00       2.95        0.91    96.90   0.501
  sub62                      5.89       0.00       0.00       0.47       3.17       0.00       3.17        0.97    98.85   0.538
  sub63                      5.89       0.00       0.00       1.71       2.63       0.00       2.63        0.80    90.67   0.447
  sub64                      5.89       0.00       0.00       0.88       2.64       0.00       2.64        0.80    72.89   0.448
  sub65                      5.89       0.00       0.00       0.77       2.67       0.00       2.67        0.82    73.94   0.453
  sub66                      5.89       0.00       0.00       1.71       2.30       0.00       2.30        0.71    66.93   0.391
  sub67                      5.89       0.00       0.00       0.47       3.49       0.00       3.49        1.08   127.64   0.592
  sub68                      5.89       0.00       0.00       0.82       3.14       0.00       3.14        0.97   107.31   0.534
  sub69                      5.89       0.00       0.00       0.88       3.40       0.00       3.40        0.79   107.30   0.576
  sub70                      5.89       3.47       0.00       3.18       4.16       0.00       4.16        0.95    85.44   0.445
  sub71                      5.89       0.00       0.00       0.47       3.03       0.00       3.03        0.72    68.84   0.514
  sub72                      5.89       0.00       0.00       0.41       2.13       0.00       2.13        0.43    32.41   0.362
  sub73                      5.89       4.05       0.00       3.38       4.23       0.00       4.23        0.99    73.37   0.426
  sub74                      5.89       0.00       0.00       4.42       1.02       0.00       1.02        0.41    60.02   0.174
  
  
  ******************
  Node Depth Summary
  ******************
  
  ---------------------------------------------------------------------------------
                                 Average  Maximum  Maximum  Time of Max    Reported
                                   Depth    Depth      HGL   Occurrence   Max Depth
  Node                 Type       Meters   Meters   Meters  days hr:min      Meters
  ---------------------------------------------------------------------------------
  WS02001211           JUNCTION     0.62     0.76     5.60     0  03:30        0.76
  WS02001212           JUNCTION     0.35     0.47     5.53     0  03:31        0.47
  WS02001213           JUNCTION     0.58     0.71     5.47     0  02:33        0.71
  WS02003069           JUNCTION     0.40     0.55     5.13     0  02:35        0.55
  WS02003072           JUNCTION     0.47     0.61     4.98     0  02:35        0.61
  WS02003073           JUNCTION     0.28     0.37     4.44     0  02:35        0.37
  WS02003060           JUNCTION     0.36     0.48     5.42     0  02:34        0.48
  WS02003066           JUNCTION     0.22     0.29     5.85     0  02:36        0.29
  WS02003059           JUNCTION     0.64     0.77     5.46     0  02:33        0.77
  WS02003067           JUNCTION     0.54     0.70     6.02     0  02:36        0.70
  WS02004401           JUNCTION     0.63     0.85     6.85     0  02:32        0.85
  WS02004402           JUNCTION     0.66     0.87     6.83     0  02:32        0.87
  WS02004403           JUNCTION     0.68     0.89     6.82     0  02:31        0.89
  WS02004404           JUNCTION     0.76     0.96     6.81     0  02:32        0.96
  WS02004406           JUNCTION     0.77     0.95     6.78     0  02:32        0.95
  WS02004409           JUNCTION     0.44     0.66     6.43     0  02:35        0.66
  WS02004410           JUNCTION     0.46     0.67     6.39     0  02:35        0.67
  WS02004411           JUNCTION     0.48     0.68     6.36     0  02:35        0.68
  WS02004412           JUNCTION     0.50     0.69     6.33     0  02:35        0.69
  WS02004413           JUNCTION     0.66     0.85     6.32     0  02:36        0.85
  WS02004405           JUNCTION     0.75     0.95     6.80     0  02:32        0.95
  WS02006109           JUNCTION     0.70     0.97     7.59     0  02:27        0.97
  WS02006110           JUNCTION     0.70     0.92     7.51     0  02:27        0.92
  WS02006111           JUNCTION     0.20     0.29     6.99     0  02:28        0.29
  WS02006112           JUNCTION     0.79     1.04     6.93     0  02:31        1.04
  WS02006113           JUNCTION     0.31     0.45     7.35     0  02:28        0.45
  WS02006115           JUNCTION     0.51     0.75     6.89     0  02:31        0.75
  WS02006116           JUNCTION     0.60     0.83     6.87     0  02:32        0.83
  WS02006230           JUNCTION     0.65     1.02     7.77     0  02:27        1.02
  WS02006231           JUNCTION     0.43     0.69     7.81     0  02:27        0.69
  WS02006232           JUNCTION     0.56     0.82     7.86     0  02:27        0.82
  WS02006234           JUNCTION     0.47     0.76     7.91     0  02:27        0.76
  WS02006235           JUNCTION     0.50     0.79     7.95     0  02:27        0.79
  WS02006238           JUNCTION     0.53     0.82     7.96     0  02:27        0.81
  WS02006240           JUNCTION     0.42     0.72     8.02     0  02:27        0.72
  WS02006242           JUNCTION     0.47     0.78     8.05     0  02:27        0.78
  WS02006243           JUNCTION     0.35     0.66     8.08     0  02:27        0.66
  WS02006245           JUNCTION     0.34     0.63     8.11     0  04:08        0.63
  WS02006247           JUNCTION     0.36     0.64     8.14     0  04:08        0.64
  WS02006248           JUNCTION     0.31     0.58     8.17     0  04:07        0.58
  WS02006249           JUNCTION     0.35     0.60     8.20     0  04:07        0.60
  WS02006239           JUNCTION     0.48     0.78     7.99     0  02:27        0.78
  WS02006251           JUNCTION     0.34     0.62     8.29     0  04:07        0.62
  WS02006252           JUNCTION     0.31     0.58     8.83     0  05:00        0.58
  WS02006253           JUNCTION     0.36     0.64     8.29     0  04:07        0.64
  WS02006256           JUNCTION     0.96     1.20     8.14     0  02:30        1.20
  WS02004138           JUNCTION     0.14     0.19     7.44     0  00:40        0.19
  WS02004407           JUNCTION     0.20     0.29     6.61     0  02:32        0.29
  WS02006228           JUNCTION     0.69     1.01     7.66     0  02:27        1.01
  WS02006229           JUNCTION     0.66     1.01     7.70     0  02:27        1.01
  WS02006280           JUNCTION     0.05     0.15     8.42     0  02:17        0.15
  WS02006284           JUNCTION     0.35     0.48     8.88     0  02:17        0.48
  WS02006287           JUNCTION     0.08     0.21     9.17     0  02:17        0.21
  WSF200               JUNCTION     0.19     0.31     5.54     0  02:38        0.31
  HS02004901           JUNCTION     0.11     0.23    10.06     0  02:15        0.23
  HS02004881           JUNCTION     0.01     0.02     9.05     0  02:17        0.02
  HS02004876           JUNCTION     0.03     0.10     9.13     0  02:15        0.10
  HS02004870           JUNCTION     0.01     0.04     9.33     0  02:17        0.04
  HS02004862           JUNCTION     0.01     0.05     9.43     0  02:18        0.05
  HS02004856           JUNCTION     0.07     0.10     9.53     0  02:17        0.10
  HS02004852           JUNCTION     0.01     0.03     9.54     0  02:19        0.03
  HS02004848           JUNCTION     0.01     0.03     9.63     0  02:17        0.03
  HS02004842           JUNCTION     0.33     0.36     9.63     0  02:16        0.36
  HS02004837           JUNCTION     0.03     0.05     9.63     0  02:17        0.05
  HS02004830           JUNCTION     0.04     0.06     9.53     0  02:17        0.06
  HS02004824           JUNCTION     0.02     0.04     9.44     0  02:20        0.04
  HS02004817           JUNCTION     0.42     0.53     9.37     0  02:18        0.53
  HS02004807           JUNCTION     0.11     0.20     9.37     0  02:18        0.20
  HS02004802           JUNCTION     0.15     0.24     9.37     0  02:18        0.24
  HS02004799           JUNCTION     0.10     0.26     9.47     0  02:16        0.26
  HS02004792           JUNCTION     0.02     0.10     9.62     0  02:15        0.10
  HS02004788           JUNCTION     0.02     0.07     9.97     0  02:16        0.07
  HS02004785           JUNCTION     0.03     0.14    10.04     0  02:15        0.14
  HS02004777           JUNCTION     0.13     0.25    10.05     0  02:15        0.25
  HS02004770           JUNCTION     0.10     0.22    10.06     0  02:15        0.22
  HS02004480           JUNCTION     0.06     0.20     9.44     0  02:16        0.20
  HS02004479           JUNCTION     0.10     0.24     9.44     0  02:16        0.24
  HS02004478           JUNCTION     0.05     0.13     9.36     0  02:17        0.13
  YS02001745           JUNCTION     0.15     0.32     7.83     0  07:14        0.31
  YS02001748           JUNCTION     0.51     0.72     7.80     0  07:13        0.71
  YS02001751           JUNCTION     0.69     0.94     7.82     0  06:14        0.93
  YS02001754           JUNCTION     0.94     1.20     7.81     0  07:21        1.19
  YS02001762           JUNCTION     1.13     1.55     7.95     0  05:05        1.42
  YS02001765           JUNCTION     1.08     1.55     8.00     0  05:05        1.38
  YS02001767           JUNCTION     1.05     1.57     8.06     0  05:05        1.36
  YS02001770           JUNCTION     1.04     1.65     8.14     0  05:05        1.39
  YS02001774           JUNCTION     1.11     1.76     8.19     0  05:05        1.49
  YS02001779           JUNCTION     0.86     1.53     8.22     0  05:05        1.29
  YS02001882           JUNCTION     0.28     0.46     7.18     0  02:47        0.46
  YS02001884           JUNCTION     0.38     0.56     7.18     0  02:47        0.56
  YS02001759           JUNCTION     1.16     1.52     7.89     0  05:05        1.43
  YS02001887           JUNCTION     0.45     0.64     7.18     0  02:47        0.64
  YS02001890           JUNCTION     0.49     0.67     7.17     0  02:47        0.67
  YS02001898           JUNCTION     0.26     0.42     7.16     0  02:46        0.42
  YS02001901           JUNCTION     0.37     0.55     7.16     0  02:46        0.55
  YS02001904           JUNCTION     0.35     0.52     7.15     0  02:49        0.52
  YS02001907           JUNCTION     0.68     0.87     7.16     0  02:49        0.87
  YS02001910           JUNCTION     0.47     0.65     7.16     0  02:46        0.65
  YS02001915           JUNCTION     0.27     0.44     7.16     0  02:46        0.44
  YS02001918           JUNCTION     0.08     0.10     7.16     0  03:03        0.10
  YS02001619           JUNCTION     0.65     0.87     7.80     0  07:12        0.86
  YS02001629           JUNCTION     0.99     1.26     7.81     0  06:56        1.26
  YS02001641           JUNCTION     1.10     1.40     7.84     0  05:06        1.36
  YS02001644           JUNCTION     1.10     1.41     7.84     0  05:06        1.36
  YS02001652           JUNCTION     0.95     1.21     7.81     0  05:03        1.19
  YS02001655           JUNCTION     0.71     0.95     7.80     0  05:39        0.95
  YS02001920           JUNCTION     0.17     0.21     7.21     0  03:02        0.21
  YS02001923           JUNCTION     0.06     0.08     7.34     0  03:02        0.08
  YS02001926           JUNCTION     0.14     0.18     7.62     0  03:01        0.18
  YS02001929           JUNCTION     0.07     0.09     7.78     0  03:01        0.09
  YS02001658           JUNCTION     0.45     0.65     7.80     0  07:17        0.65
  YS02001661           JUNCTION     0.25     0.39     7.80     0  07:11        0.39
  YS02001664           JUNCTION     0.07     0.12     8.04     0  02:43        0.12
  YS02001622           JUNCTION     0.67     0.89     7.79     0  07:14        0.89
  YS02001633           JUNCTION     1.08     1.36     7.82     0  07:13        1.35
  YS02001649           JUNCTION     1.14     1.42     7.81     0  07:14        1.40
  YS02001757           JUNCTION     1.26     1.56     7.82     0  06:41        1.53
  YS02001895           JUNCTION     0.25     0.42     7.17     0  02:46        0.42
  YS02001625           JUNCTION     0.95     1.19     7.79     0  07:16        1.18
  YS02163301           JUNCTION     1.02     1.29     7.81     0  07:13        1.29
  YS02163601           JUNCTION     1.14     1.42     7.81     0  05:06        1.40
  YS02164001           JUNCTION     1.08     1.37     7.83     0  05:06        1.34
  YS02001647           JUNCTION     0.93     1.23     7.84     0  05:06        1.19
  YSB1154              JUNCTION     0.24     0.39     9.45     0  02:16        0.39
  YSB6556              JUNCTION     0.13     0.28     9.44     0  02:16        0.28
  YSB1174              JUNCTION     0.19     0.34     9.44     0  02:16        0.34
  YSB1171              JUNCTION     0.39     0.54     9.44     0  02:16        0.54
  YS02006553           JUNCTION     0.68     0.87     7.15     0  02:49        0.87
  YS02006561           JUNCTION     0.14     0.23     6.89     0  02:47        0.23
  YS02006556           JUNCTION     0.66     0.84     7.15     0  02:49        0.84
  YS02006558           JUNCTION     0.70     0.88     7.15     0  02:49        0.88
  YS02001783           JUNCTION     0.25     0.66     6.80     0  02:58        0.62
  YS02001784           JUNCTION     0.28     0.72     6.79     0  02:58        0.70
  YS02001786           JUNCTION     0.25     0.72     6.75     0  02:58        0.72
  YS02001788           JUNCTION     0.19     0.76     6.74     0  02:58        0.71
  YS02001790           JUNCTION     0.24     1.73     7.38     0  02:56        1.02
  YS02001791           JUNCTION     0.19     1.48     6.95     0  02:56        1.16
  YS02001793           JUNCTION     0.21     2.16     6.99     0  02:52        1.77
  WS02004139           JUNCTION     0.56     0.71     5.62     0  03:30        0.70
  WSC                  OUTFALL      0.28     0.37     1.04     0  02:36        0.37
  3                    OUTFALL      0.06     0.20     6.20     0  02:30        0.20
  4                    OUTFALL      0.01     0.10     7.10     0  04:07        0.10
  5                    OUTFALL      0.00     0.00     5.00     0  00:00        0.00
  JK-storage           STORAGE      1.02     5.80     6.60     0  02:57        5.80
  CC-storage           STORAGE      0.53     0.78     7.78     0  07:15        0.78
  XR-storage           STORAGE      6.36     7.72     5.72     0  03:57        7.72
  
  
  *******************
  Node Inflow Summary
  *******************
  
  -------------------------------------------------------------------------------------------------
                                  Maximum  Maximum                  Lateral       Total        Flow
                                  Lateral    Total  Time of Max      Inflow      Inflow     Balance
                                   Inflow   Inflow   Occurrence      Volume      Volume       Error
  Node                 Type           LPS      LPS  days hr:min    10^6 ltr    10^6 ltr     Percent
  -------------------------------------------------------------------------------------------------
  WS02001211           JUNCTION      7.35   382.33     0  00:40       0.207        6.15       0.372
  WS02001212           JUNCTION      0.00   378.95     0  00:41           0        6.12       0.190
  WS02001213           JUNCTION      0.00   378.38     0  00:41           0        6.11       0.282
  WS02003069           JUNCTION      0.32   847.04     0  02:34     0.00902        12.4       0.179
  WS02003072           JUNCTION      0.00   846.77     0  02:35           0        12.3       0.234
  WS02003073           JUNCTION      1.82   849.50     0  02:35      0.0514        12.4       0.255
  WS02003060           JUNCTION     16.53   846.94     0  02:34       0.466        12.4       0.174
  WS02003066           JUNCTION      0.00   525.15     0  02:36           0        5.86       0.072
  WS02003059           JUNCTION      0.00   377.00     0  00:42           0         6.1       0.502
  WS02003067           JUNCTION      0.00   525.13     0  02:36           0        5.87       0.154
  WS02004401           JUNCTION      0.00   533.90     0  02:31           0        6.09       0.341
  WS02004402           JUNCTION      0.00   533.14     0  02:31           0        6.07       0.323
  WS02004403           JUNCTION      0.00   532.44     0  02:31           0        6.05       0.295
  WS02004404           JUNCTION      0.16   532.26     0  02:31     0.00457        6.04       0.224
  WS02004406           JUNCTION      0.00   532.28     0  02:32           0        6.01       0.546
  WS02004409           JUNCTION      0.00   531.75     0  02:32           0        5.97       0.260
  WS02004410           JUNCTION      0.00   528.55     0  02:33           0        5.95       0.295
  WS02004411           JUNCTION      0.00   526.45     0  02:34           0        5.93       0.304
  WS02004412           JUNCTION      0.00   525.51     0  02:35           0        5.92       0.331
  WS02004413           JUNCTION      0.00   525.29     0  02:35           0         5.9       0.493
  WS02004405           JUNCTION      0.04   532.19     0  02:32     0.00107        6.03       0.335
  WS02006109           JUNCTION      1.23   539.64     0  02:27      0.0347        6.18       0.260
  WS02006110           JUNCTION      0.00   539.62     0  02:27           0        6.17       0.329
  WS02006111           JUNCTION      0.00   559.33     0  02:28           0        6.14       0.066
  WS02006112           JUNCTION      9.64   550.51     0  02:27      0.0263        6.16       0.466
  WS02006113           JUNCTION      0.00   540.00     0  02:27           0        6.15       0.151
  WS02006115           JUNCTION      0.00   544.81     0  02:28           0        6.13       0.313
  WS02006116           JUNCTION      0.00   536.89     0  02:29           0        6.11       0.299
  WS02006230           JUNCTION     10.28   395.78     0  04:11        0.29        5.28       0.208
  WS02006231           JUNCTION      0.00   385.46     0  04:11           0           5       0.239
  WS02006232           JUNCTION      0.00   385.46     0  04:11           0        5.02       0.310
  WS02006234           JUNCTION      0.00   386.46     0  03:42           0        5.02       0.149
  WS02006235           JUNCTION      0.00   389.44     0  03:42           0        5.06       0.203
  WS02006238           JUNCTION      0.00   306.32     0  03:50           0        3.22       0.227
  WS02006240           JUNCTION      0.00   313.71     0  02:23           0        3.21       0.343
  WS02006242           JUNCTION      0.00   328.54     0  02:23           0        3.21       0.435
  WS02006243           JUNCTION      0.00   344.87     0  02:22           0         3.2      -0.212
  WS02006245           JUNCTION      0.00   353.88     0  02:22           0        3.21       0.395
  WS02006247           JUNCTION      0.00   360.41     0  02:22           0        3.21       0.212
  WS02006248           JUNCTION      0.00   366.50     0  02:21           0        3.21       0.008
  WS02006249           JUNCTION      0.00   402.68     0  04:07           0        3.35       0.463
  WS02006239           JUNCTION      0.00   306.25     0  04:01           0        3.21       0.260
  WS02006251           JUNCTION      0.08   405.44     0  02:21     0.00217        3.38       0.248
  WS02006252           JUNCTION      0.00   400.00     0  04:00           0        3.21       0.013
  WS02006253           JUNCTION      1.47    47.68     0  02:19     0.00341       0.179       2.225
  WS02006256           JUNCTION      0.00   599.90     0  03:20           0        3.76       0.065
  WS02004138           JUNCTION      0.00   379.98     0  05:20           0        5.96       0.050
  WS02004407           JUNCTION      0.00   531.99     0  02:32           0        5.97       0.117
  WS02006228           JUNCTION      0.00   538.40     0  02:27           0        6.16       0.218
  WS02006229           JUNCTION      0.00   538.52     0  02:27           0        6.17       0.199
  WS02006280           JUNCTION      0.00   217.53     0  02:17           0       0.907       0.008
  WS02006284           JUNCTION      0.10   217.52     0  02:17      0.0027       0.908       0.117
  WS02006287           JUNCTION      0.00   217.38     0  02:17           0       0.906       0.080
  WSF200               JUNCTION      0.00   525.15     0  02:36           0        5.86       0.068
  HS02004901           JUNCTION     11.93    11.93     0  02:09      0.0317      0.0318       5.839
  HS02004881           JUNCTION      4.82    41.35     0  02:16      0.0138       0.145       0.162
  HS02004876           JUNCTION      7.65    36.85     0  02:17      0.0265       0.132       0.400
  HS02004870           JUNCTION      8.49    29.37     0  02:17      0.0262       0.106       0.101
  HS02004862           JUNCTION      6.94    21.46     0  02:17      0.0318      0.0798       0.212
  HS02004856           JUNCTION      6.29    14.58     0  02:17      0.0197      0.0494       2.991
  HS02004852           JUNCTION      0.00     8.69     0  02:17           0      0.0298       0.170
  HS02004848           JUNCTION     13.82    13.82     0  02:19      0.0624      0.0624       0.070
  HS02004842           JUNCTION      0.00     5.61     0  02:29           0      0.0456      39.900
  HS02004837           JUNCTION     19.93    24.68     0  02:16       0.225       0.257       0.316
  HS02004830           JUNCTION      0.15    24.82     0  02:17     0.00423       0.248       0.500
  HS02004824           JUNCTION     15.50    40.13     0  02:20      0.0817       0.328       0.165
  HS02004817           JUNCTION      0.60    40.73     0  02:20      0.0169       0.344       5.084
  HS02004807           JUNCTION     15.97    55.26     0  02:18      0.0481       0.376       1.137
  HS02004802           JUNCTION      0.00    55.58     0  02:20           0       0.372       1.103
  HS02004799           JUNCTION     12.29   138.29     0  02:15      0.0389       0.471       0.485
  HS02004792           JUNCTION     54.98   126.28     0  02:14        0.17       0.433       0.095
  HS02004788           JUNCTION     18.33    73.52     0  02:15       0.101       0.264       0.149
  HS02004785           JUNCTION      0.15    55.60     0  02:15     0.00423       0.164       0.294
  HS02004777           JUNCTION      0.03    55.95     0  02:13    0.000846       0.165       3.243
  HS02004770           JUNCTION     46.61    57.20     0  02:12       0.135       0.166       1.906
  HS02004480           JUNCTION      0.00   163.03     0  02:15           0        0.55       0.132
  HS02004479           JUNCTION      0.00    25.27     0  02:18           0       0.091       0.808
  HS02004478           JUNCTION      0.00   217.38     0  02:17           0       0.906       0.069
  YS02001745           JUNCTION     76.78   118.76     0  05:44       0.836       0.971       0.363
  YS02001748           JUNCTION      0.04   153.48     0  05:43     0.00127        1.06       1.246
  YS02001751           JUNCTION      0.01   172.09     0  05:41     0.00031       0.925       2.205
  YS02001754           JUNCTION      0.26    90.99     0  02:25     0.00733       0.831       2.572
  YS02001762           JUNCTION      0.00   114.72     0  02:40           0       0.909       2.365
  YS02001765           JUNCTION      0.00   125.12     0  02:36           0       0.911       2.719
  YS02001767           JUNCTION      0.54   123.00     0  02:55      0.0151       0.931       3.909
  YS02001770           JUNCTION     99.01   130.89     0  02:55       0.977        1.04       2.998
  YS02001774           JUNCTION      0.00    51.13     0  04:32           0       0.156      19.062
  YS02001779           JUNCTION      0.01    52.44     0  04:32    0.000141      0.0708      20.218
  YS02001882           JUNCTION      0.00     4.34     0  02:09           0     0.00535      45.664
  YS02001884           JUNCTION      0.00    12.00     0  02:06           0      0.0214      29.460
  YS02001759           JUNCTION     96.94   208.68     0  02:57       0.912        1.79       1.286
  YS02001887           JUNCTION    128.09   128.09     0  02:40        1.09         1.1       0.656
  YS02001890           JUNCTION      0.00   127.71     0  02:48           0        1.07       0.736
  YS02001898           JUNCTION      0.00   128.00     0  02:48           0        1.06       0.207
  YS02001901           JUNCTION      0.00   128.14     0  02:48           0        1.06       0.523
  YS02001904           JUNCTION      0.00   127.84     0  02:48           0        1.06       0.486
  YS02001907           JUNCTION      0.00   230.52     0  02:47           0        2.27       0.980
  YS02001910           JUNCTION      0.00   104.29     0  02:56           0        1.22       0.837
  YS02001915           JUNCTION     68.86   103.63     0  03:00       0.715        1.23       0.373
  YS02001918           JUNCTION      0.00    35.27     0  03:02           0       0.513       0.221
  YS02001619           JUNCTION     66.93    66.93     0  02:55       0.706       0.707       1.480
  YS02001629           JUNCTION      0.00   102.77     0  04:56           0        0.69       3.706
  YS02001641           JUNCTION      0.00   145.79     0  02:55           0        1.36       1.549
  YS02001644           JUNCTION     72.93   218.80     0  03:01       0.803        2.14       1.230
  YS02001652           JUNCTION      0.00   108.47     0  02:37           0       0.796       2.779
  YS02001655           JUNCTION      0.15   152.78     0  04:53     0.00434       0.872       2.580
  YS02001920           JUNCTION      2.87    35.29     0  03:02      0.0809       0.515       0.399
  YS02001923           JUNCTION      0.04    32.43     0  03:01     0.00106       0.435       0.070
  YS02001926           JUNCTION      0.05    32.45     0  03:01     0.00147       0.436       0.499
  YS02001929           JUNCTION     32.41    32.41     0  03:01       0.434       0.434       0.068
  YS02001658           JUNCTION      0.00   173.38     0  05:03           0        1.02       1.343
  YS02001661           JUNCTION      0.00   129.77     0  04:48           0       0.952       0.589
  YS02001664           JUNCTION     90.67    90.67     0  02:43       0.796       0.796       0.015
  YS02001622           JUNCTION      0.00    84.08     0  02:50           0       0.758       3.799
  YS02001633           JUNCTION     74.14   150.71     0  02:59       0.827        1.42       2.297
  YS02001649           JUNCTION      0.00   315.06     0  03:02           0        2.83       1.320
  YS02001757           JUNCTION      0.00   564.38     0  03:00           0         5.3       1.761
  YS02001895           JUNCTION      0.00   127.51     0  02:48           0        1.07       0.352
  YS02001625           JUNCTION      0.00   105.13     0  04:56           0       0.786       5.147
  YS02163301           JUNCTION      0.00    82.22     0  02:59           0       0.618       3.981
  YS02163601           JUNCTION      0.11   146.82     0  02:59      0.0031        1.38       2.213
  YS02164001           JUNCTION      0.00   147.17     0  02:53           0        1.36       1.464
  YS02001647           JUNCTION      0.00   221.26     0  03:01           0        2.09       1.200
  YSB1154              JUNCTION     13.60    13.60     0  02:14      0.0472      0.0485       3.067
  YSB6556              JUNCTION      0.00    13.56     0  02:17           0      0.0495       2.583
  YSB1174              JUNCTION     13.59    13.59     0  02:09      0.0344      0.0354       3.761
  YSB1171              JUNCTION      0.00    25.33     0  02:15           0      0.0904       7.514
  YS02006553           JUNCTION      0.00   230.04     0  02:46           0        2.26       0.635
  YS02006561           JUNCTION      0.00   342.14     0  02:45           0         3.2       0.021
  YS02006556           JUNCTION      0.00   229.75     0  02:47           0        2.27       0.459
  YS02006558           JUNCTION    108.19   337.71     0  02:47       0.991        3.23       0.140
  YS02001783           JUNCTION      0.00   337.52     0  02:47           0         3.2       0.048
  YS02001784           JUNCTION      1.06   403.03     0  02:58      0.0299        3.23       0.078
  YS02001786           JUNCTION      0.06   393.95     0  02:59     0.00159        3.23       0.077
  YS02001788           JUNCTION      0.07   417.97     0  02:59       0.002        3.23       0.044
  YS02001790           JUNCTION      0.15   428.00     0  03:19     0.00437        3.23       0.042
  YS02001791           JUNCTION      0.00   470.58     0  03:19           0        3.23       0.024
  YS02001793           JUNCTION      0.00   493.79     0  03:20           0        3.23       0.000
  WS02004139           JUNCTION      0.32   379.79     0  00:40     0.00905        5.96       0.418
  WSC                  OUTFALL       0.00   850.81     0  02:36           0        12.3       0.000
  3                    OUTFALL       0.00   498.16     0  02:30           0        1.89       0.000
  4                    OUTFALL       0.00    97.50     0  04:07           0       0.117       0.000
  5                    OUTFALL       0.00     0.00     0  00:00           0           0       0.000 ltr
  JK-storage           STORAGE       0.00   699.91     0  03:29           0        3.38     -16.720
  CC-storage           STORAGE       0.00   563.76     0  03:00           0        5.19      -0.129
  XR-storage           STORAGE     324.79   324.79     0  02:50        7.04        7.64      -0.001
  
  
  **********************
  Node Surcharge Summary
  **********************
  
  Surcharging occurs when water rises above the top of the highest conduit.
  ---------------------------------------------------------------------
                                               Max. Height   Min. Depth
                                   Hours       Above Crown    Below Rim
  Node                 Type      Surcharged         Meters       Meters
  ---------------------------------------------------------------------
  WS02006109           JUNCTION        0.77          0.153        1.667
  WS02006110           JUNCTION        0.12          0.013        1.837
  WS02006112           JUNCTION        0.19          0.042        1.638
  WS02006232           JUNCTION        0.82          0.119        1.361
  WS02006234           JUNCTION        0.12          0.037        1.203
  WS02006235           JUNCTION        0.44          0.078        1.212
  WS02006238           JUNCTION        0.61          0.095        1.335
  WS02006240           JUNCTION        0.06          0.015        1.375
  WS02006242           JUNCTION        0.37          0.054        0.766
  WS02006239           JUNCTION        0.12          0.042        1.248
  WS02006252           JUNCTION        0.88          0.185        0.915
  WS02006228           JUNCTION        0.70          0.182        2.018
  YS02001754           JUNCTION        3.24          0.154        0.996
  YS02001762           JUNCTION        5.15          0.552        0.598
  YS02001765           JUNCTION        5.03          0.553        0.547
  YS02001767           JUNCTION        4.81          0.572        0.458
  YS02001770           JUNCTION        4.43          0.620        0.300
  YS02001774           JUNCTION        5.12          0.763        0.287
  YS02001779           JUNCTION        2.76          0.531        0.149
  YS02001759           JUNCTION        5.22          0.522        0.688
  YS02001641           JUNCTION        5.09          0.401        0.699
  YS02001644           JUNCTION        5.09          0.410        0.510
  YS02001652           JUNCTION        3.39          0.183        0.947
  YS02001633           JUNCTION        4.97          0.344        0.716
  YS02001649           JUNCTION        5.17          0.417        0.633
  YS02001757           JUNCTION        5.36          0.556        0.654
  YS02001625           JUNCTION        3.61          0.186        0.594
  YS02163301           JUNCTION        4.53          0.295        0.735
  YS02163601           JUNCTION        5.17          0.417        0.663
  YS02164001           JUNCTION        5.03          0.372        0.728
  YS02001647           JUNCTION        3.53          0.235        0.665
  YS02001790           JUNCTION        0.37          0.934        0.223
  YS02001791           JUNCTION        0.41          0.684        1.236
  YS02001793           JUNCTION        0.49          1.160        1.440
  
  
  *********************
  Node Flooding Summary
  *********************
  
  Flooding refers to all water that overflows a node, whether it ponds or not.
  --------------------------------------------------------------------------
                                                             Total   Maximum
                                 Maximum   Time of Max       Flood    Ponded
                        Hours       Rate    Occurrence      Volume     Depth
  Node                 Flooded       LPS   days hr:min    10^6 ltr    Meters
  --------------------------------------------------------------------------
  JK-storage              0.30    398.13      0  02:59       0.296     0.000
  XR-storage              1.55    281.07      0  04:00       0.760     0.000
  
  
  **********************
  Storage Volume Summary
  **********************
  
  --------------------------------------------------------------------------------------------------
                         Average     Avg  Evap Exfil       Maximum     Max    Time of Max    Maximum
                          Volume    Pcnt  Pcnt  Pcnt        Volume    Pcnt     Occurrence    Outflow
  Storage Unit           1000 m3    Full  Loss  Loss       1000 m3    Full    days hr:min        LPS
  --------------------------------------------------------------------------------------------------
  JK-storage               0.051      18     0     0         0.291     100       0  02:57     599.90
  CC-storage               1.464       9     0     0         2.164      14       0  07:15     400.00
  XR-storage               0.763      82     0     0         0.926     100       0  03:57     379.98
  
  
  ***********************
  Outfall Loading Summary
  ***********************
  
  -----------------------------------------------------------
                         Flow       Avg       Max       Total
                         Freq      Flow      Flow      Volume
  Outfall Node           Pcnt       LPS       LPS    10^6 ltr
  -----------------------------------------------------------
  WSC                  100.00    488.42    850.81      12.337
  3                     69.62    148.49    498.16       1.887
  4                     17.95     36.25     97.50       0.117
  5                      0.00      0.00      0.00       0.000
  -----------------------------------------------------------
  System                46.89    673.16   1125.10      14.341
  
  
  ********************
  Link Flow Summary
  ********************
  
  -----------------------------------------------------------------------------
                                 Maximum  Time of Max   Maximum    Max/    Max/
                                  |Flow|   Occurrence   |Veloc|    Full    Full
  Link                 Type          LPS  days hr:min     m/sec    Flow   Depth
  -----------------------------------------------------------------------------
  WS02003066WSF200     CONDUIT    525.15     0  02:36      2.71    0.09    0.23
  WS02006287WS02006284 CONDUIT    217.42     0  02:17      1.65    0.10    0.22
  WS02006284WS02006280 CONDUIT    217.53     0  02:17      1.89    0.09    0.20
  WS02006280WS02006229 CONDUIT    217.53     0  02:17      3.04    0.05    0.15
  WS02006229WS02006228 CONDUIT    538.40     0  02:27      1.07    1.78    1.00
  WS02006256WS02006235 CONDUIT    158.12     0  00:13      2.30    1.67    1.00
  WS02006253WS02006251 CONDUIT     45.98     0  02:23      0.50    0.14    0.90
  WS02006252WS02006251 CONDUIT    400.06     0  04:00      3.18    1.47    1.00
  WS02006251WS02006249 CONDUIT    402.68     0  04:07      1.19    1.16    0.87
  WS02006249WS02006248 CONDUIT    366.50     0  02:21      1.23    2.01    0.83
  WS02006248WS02006247 CONDUIT    360.41     0  02:22      1.20    0.78    0.87
  WS02006247WS02006245 CONDUIT    353.88     0  02:22      1.18    2.81    0.90
  WS02006245WS02006243 CONDUIT    344.87     0  02:22      1.22    1.02    0.91
  WS02006243WS02006242 CONDUIT    328.54     0  02:23      1.04    0.70    0.97
  WS02006242WS02006240 CONDUIT    313.71     0  02:23      0.91    1.25    1.00
  WS02006240WS02006239 CONDUIT    306.25     0  04:01      0.90    0.96    1.00
  WS02006239WS02006238 CONDUIT    306.32     0  03:50      0.84    0.98    1.00
  WS02006238WS02006235 CONDUIT    312.17     0  03:50      0.91    0.70    1.00
  WS02006235WS02006234 CONDUIT    386.46     0  03:42      1.04    4.08    1.00
  WS02006234WS02006232 CONDUIT    385.46     0  04:11      1.02    0.78    1.00
  WS02006232WS02006231 CONDUIT    385.46     0  04:11      1.05    0.81    0.99
  WS02006231WS02006230 CONDUIT    385.50     0  04:11      1.35    5.85    0.95
  WS02006230WS02006229 CONDUIT    395.87     0  04:11      1.03    8.81    1.00
  WS02006228WS02006109 CONDUIT    538.41     0  02:27      1.07    2.35    1.00
  WS02006116WS02004401 CONDUIT    533.90     0  02:31      0.77    0.74    0.84
  WS02006115WS02006116 CONDUIT    536.89     0  02:29      0.89    0.69    0.76
  WS02006113WS02006111 CONDUIT    559.33     0  02:28      2.46    0.67    0.46
  WS02006112WS02006115 CONDUIT    544.81     0  02:28      0.76    0.32    0.87
  WS02006111WS02006112 CONDUIT    544.43     0  02:28      1.51    0.26    0.67
  WS02006110WS02006113 CONDUIT    540.00     0  02:27      1.28    0.49    0.78
  WS02006109WS02006110 CONDUIT    539.62     0  02:27      1.07    1.04    1.00
  WS02004411WS02004412 CONDUIT    525.51     0  02:35      0.91    0.75    0.69
  WS02004401WS02004402 CONDUIT    533.14     0  02:31      0.77    0.64    0.86
  WS02004413WS02003067 CONDUIT    525.13     0  02:36      1.10    0.22    0.59
  WS02004412WS02004413 CONDUIT    525.29     0  02:35      0.81    0.35    0.77
  WS02004410WS02004411 CONDUIT    526.45     0  02:34      0.94    0.72    0.68
  WS02004409WS02004410 CONDUIT    528.55     0  02:33      0.98    0.68    0.67
  WS02004407WS02004409 CONDUIT    531.75     0  02:32      1.49    0.19    0.48
  WS02004406WS02004407 CONDUIT    531.99     0  02:32      1.03    0.24    0.62
  WS02004405WS02004406 CONDUIT    532.28     0  02:32      0.69    1.05    0.95
  WS02004404WS02004405 CONDUIT    532.15     0  02:32      0.85    5.21    0.96
  WS02004403WS02004404 CONDUIT    532.10     0  02:31      0.74    0.38    0.92
  WS02004402WS02004403 CONDUIT    532.44     0  02:31      0.75    0.76    0.88
  WS02004139WS02001211 CONDUIT    374.98     0  00:40      0.69    0.47    0.57
  WS02004138WS02004139 CONDUIT    379.47     0  00:40      2.95    0.08    0.42
  WS02003067WS02003066 CONDUIT    525.15     0  02:36      1.19    0.17    0.41
  WS02001213WS02003059 CONDUIT    377.00     0  00:42      0.68    0.62    0.73
  WS02001212WS02001213 CONDUIT    378.38     0  00:41      1.31    0.58    0.43
  WS02001211WS02001212 CONDUIT    378.95     0  00:41      0.77    0.29    0.62
  WS02003072WS02003073 CONDUIT    847.68     0  02:35      1.67    1.83    0.46
  WS02003069WS02003072 CONDUIT    846.77     0  02:35      1.57    0.41    0.48
  WS02003060WS02003069 CONDUIT    846.72     0  02:34      1.82    0.33    0.43
  WS02003059WS02003060 CONDUIT    375.10     0  00:43      0.93    0.24    0.63
  HS02004901HS02004770 CONDUIT     10.98     0  02:14      0.05    0.04    0.33
  HS02004876HS02004881 CONDUIT     36.94     0  02:17      0.59    0.39    0.09
  HS02004870HS02004876 CONDUIT     29.35     0  02:17      0.41    0.02    0.10
  HS02004842HS02004848 CONDUIT      5.61     0  02:29      0.03    0.00    0.28
  HS02004837HS02004842 CONDUIT      5.81     0  02:30      0.42    0.00    0.29
  HS02004830HS02004837 CONDUIT     24.67     0  02:17      0.45    0.02    0.08
  HS02004824HS02004830 CONDUIT     24.81     0  02:17      0.49    0.03    0.07
  HS02004817HS02004824 CONDUIT     40.13     0  02:20      0.17    0.02    0.40
  HS02004770HS02004777 CONDUIT     55.92     0  02:13      0.24    0.10    0.34
  HS02004799HS02004480 CONDUIT    138.09     0  02:15      0.61    0.17    0.32
  HS02004792HS02004799 CONDUIT    126.20     0  02:15      0.70    0.08    0.26
  HS02004788HS02004792 CONDUIT     73.46     0  02:16      0.85    0.05    0.12
  HS02004785HS02004788 CONDUIT     55.50     0  02:16      0.53    0.42    0.15
  HS02004777HS02004785 CONDUIT     55.45     0  02:15      0.29    0.07    0.28
  HS02004480HS02004478 CONDUIT    162.94     0  02:16      0.99    0.69    0.24
  HS02004479HS02004480 CONDUIT     25.54     0  02:18      0.15    0.02    0.31
  HS02004862HS02004870 CONDUIT     21.42     0  02:18      0.48    0.02    0.06
  HS02004848HS02004852 CONDUIT      8.69     0  02:17      0.32    0.01    0.04
  HS02004856HS02004862 CONDUIT     14.54     0  02:17      0.35    0.01    0.06
  HS02004852HS02004856 CONDUIT      8.65     0  02:19      0.13    0.01    0.09
  HS02004802HS02004478 CONDUIT     56.01     0  02:21      0.31    0.05    0.26
  HS02004478WS02006287 CONDUIT    217.38     0  02:17      1.35    0.06    0.18
  HS02004817HS02004807 CONDUIT     41.32     0  02:22      0.11    0.02    0.52
  HS02004807HS02004802 CONDUIT     55.58     0  02:20      0.26    0.11    0.31
  YS02001759YS02001757 CONDUIT    209.80     0  02:57      0.27    0.15    1.00
  YS02001762YS02001759 CONDUIT    113.02     0  02:57      0.18    0.13    1.00
  YS02001765YS02001762 CONDUIT    114.72     0  02:40      0.23    0.11    1.00
  YS02001770YS02001767 CONDUIT    122.47     0  02:55      0.31    0.49    1.00
  YS02001774YS02001770 CONDUIT     51.13     0  04:32      0.14    0.03    1.00
  YS02001779YS02001774 CONDUIT     52.43     0  04:32      0.07    0.03    1.00
  YS02001649YS02001757 CONDUIT    315.21     0  03:02      0.40    0.19    1.00
  YS02001767YS02001765 CONDUIT    125.12     0  02:36      0.26    0.16    1.00
  YS02006561YS02001783 CONDUIT    337.52     0  02:47      1.82    0.17    0.55
  YS02001783YS02001784 CONDUIT    401.97     0  02:58      1.26    0.55    0.83
  YS02001784YS02001785 CONDUIT    393.89     0  02:59      1.35    0.92    0.90
  YS02001788YS02001790 CONDUIT    427.85     0  03:19      1.91    0.32    0.98
  YS02001790YS02001791 CONDUIT    470.58     0  03:19      2.26    0.51    1.00
  YS02001791YS02001793 CONDUIT    493.79     0  03:20      4.49    0.21    1.00
  YS02001910YS02001907 CONDUIT    104.49     0  02:56      0.49    0.06    0.75
  YS02001786YS02001788 CONDUIT    417.90     0  02:59      1.84    0.81    0.91
  YS02001915YS02001910 CONDUIT    104.29     0  02:56      0.45    0.05    0.54
  YS02001918YS02001915 CONDUIT     35.26     0  03:03      0.44    0.02    0.27
  YS02001923YS02001920 CONDUIT     32.42     0  03:02      0.46    0.01    0.14
  YS02001926YS02001923 CONDUIT     32.39     0  03:01      0.50    0.05    0.14
  YS02001929YS02001926 CONDUIT     32.40     0  03:01      0.53    0.02    0.13
  YS02001920YS02001918 CONDUIT     35.27     0  03:02      0.47    0.03    0.15
  YS02001629YS02163301 CONDUIT     82.22     0  02:59      0.12    0.10    1.00
  YS02001619YS02001622 CONDUIT     84.08     0  02:50      0.66    0.12    0.88
  YS02001622YS02001625 CONDUIT    105.13     0  04:56      0.26    0.06    0.94
  YS02001625YS02001629 CONDUIT    102.77     0  04:56      0.26    0.05    0.94
  YS02163301YS02001633 CONDUIT     76.56     0  02:59      0.10    0.07    1.00
  YS02163601YS02164001 CONDUIT    147.17     0  02:53      0.19    0.13    1.00
  YS02164001YS02001641 CONDUIT    145.79     0  02:55      0.19    0.20    1.00
  YS02001641YS02001644 CONDUIT    146.23     0  03:01      0.19    0.47    1.00
  YS02001647YS02001649 CONDUIT    233.69     0  02:59      0.31    0.12    1.00
  YS02006553YS02006556 CONDUIT    229.75     0  02:47      0.33    0.20    0.84
  YS02006556YS02006558 CONDUIT    229.73     0  02:47      0.32    0.18    0.86
  YSB6556YSB1171       CONDUIT     13.83     0  02:18      0.06    0.01    0.58
  YS02001907YS02006553 CONDUIT    230.04     0  02:46      0.27    0.27    0.95
  YS02006558YS02006561 CONDUIT    342.14     0  02:45      2.38    0.76    0.51
  YS02001633YS02163601 CONDUIT    146.71     0  02:59      0.19    0.15    1.00
  YS02001644YS02001647 CONDUIT    221.26     0  03:01      0.29    0.13    1.00
  YS02001745YS02001748 CONDUIT    150.08     0  05:59      1.42    0.06    0.46
  YS02001748YS02001751 CONDUIT    162.74     0  05:45      1.11    0.08    0.82
  YS02001751YS02001754 CONDUIT     90.73     0  02:25      0.98    0.04    0.97
  YS02001754YS02001757 CONDUIT     97.26     0  02:51      0.33    0.04    1.00
  YS02001882YS02001884 CONDUIT      4.34     0  02:09      0.06    0.00    0.48
  YS02001884YS02001887 CONDUIT     12.00     0  02:06      0.06    0.02    0.57
  YS02001890YS02001895 CONDUIT    127.51     0  02:48      0.29    0.06    0.54
  YS02001895YS02001898 CONDUIT    128.00     0  02:48      0.49    0.22    0.41
  YS02001898YS02001901 CONDUIT    128.14     0  02:48      0.34    0.08    0.49
  YS02001901YS02001904 CONDUIT    127.84     0  02:48      0.30    0.20    0.54
  YS02001904YS02001907 CONDUIT    127.82     0  02:48      0.22    0.04    0.70
  YS02001887YS02001890 CONDUIT    127.71     0  02:48      0.25    0.22    0.63
  YS02001652YS02001649 CONDUIT    128.86     0  02:37      0.33    0.06    1.00
  YS02001655YS02001652 CONDUIT    108.47     0  02:37      1.05    0.05    0.98
  YS02001658YS02001655 CONDUIT    145.47     0  04:52      1.27    0.06    0.80
  YS02001661YS02001658 CONDUIT    173.38     0  05:03      1.47    0.07    0.48
  YS02001664YS02001661 CONDUIT     90.67     0  02:43      1.14    0.03    0.22
  YSB1154YSB6556       CONDUIT     13.56     0  02:17      0.19    0.02    0.47
  YSB1174YSB1171       CONDUIT     12.63     0  02:10      0.06    0.02    0.59
  YSB1171HS02004479    CONDUIT     25.27     0  02:18      0.54    0.02    0.46
  HS02004881HS02006253 CONDUIT     41.34     0  02:17      1.70    0.01    0.22
  YS02001793JiankangQianchi CONDUIT    699.91     0  03:29     13.16    0.06    1.00
  YS02001757CaochengTiaoxuchi CONDUIT    563.76     0  03:00      1.15    0.25    0.89
  WSF200WS02003060     CONDUIT    524.56     0  02:36      1.84    0.12    0.33
  1                    CONDUIT    850.81     0  02:36      3.18    0.30    0.37
  2                    CONDUIT     97.50     0  04:07      4.81    0.23    0.33
  3                    CONDUIT    498.16     0  02:30      9.80    0.79    0.68
  4                    CONDUIT      0.00     0  00:00      0.00    0.00    0.00
  CC-Pump-1            PUMP       200.00     0  03:40              1.00
  CC-Pump-2            PUMP       200.00     0  02:21              1.00
  JK-Pump-1            PUMP       300.00     0  03:20              1.00
  JK-Pump-2            PUMP       299.99     0  04:10              1.00
  XR-Pump-1            PUMP        95.00     0  00:20              1.00
  XR-Pump-2            PUMP        95.00     0  00:00              1.00
  XR-Pump-3            PUMP        95.00     0  00:00              1.00
  XR-Pump-4            PUMP        95.00     0  00:20              1.00
  
  
  ***************************
  Flow Classification Summary
  ***************************
  
  -------------------------------------------------------------------------------------
                      Adjusted    ---------- Fraction of Time in Flow Class ---------- 
                       /Actual         Up    Down  Sub   Sup   Up    Down  Norm  Inlet 
  Conduit               Length    Dry  Dry   Dry   Crit  Crit  Crit  Crit  Ltd   Ctrl  
  -------------------------------------------------------------------------------------
  WS02003066WSF200        1.00   0.04  0.03  0.00  0.00  0.93  0.00  0.00  0.72  0.00
  WS02006287WS02006284    1.00   0.04  0.02  0.00  0.69  0.25  0.00  0.00  0.77  0.00
  WS02006284WS02006280    1.00   0.05  0.00  0.00  0.00  0.00  0.00  0.95  0.00  0.00
  WS02006280WS02006229    1.00   0.05  0.00  0.00  0.00  0.00  0.00  0.95  0.00  0.00
  WS02006229WS02006228    1.00   0.00  0.00  0.00  1.00  0.00  0.00  0.00  0.00  0.00
  WS02006256WS02006235    1.00   0.00  0.00  0.00  0.99  0.00  0.00  0.00  0.00  0.00
  WS02006253WS02006251    1.00   0.03  0.01  0.00  0.96  0.00  0.00  0.00  0.00  0.00
  WS02006252WS02006251    1.00   0.09  0.00  0.00  0.00  0.00  0.91  0.00  0.00  0.00
  WS02006251WS02006249    1.00   0.00  0.00  0.00  1.00  0.00  0.00  0.00  0.29  0.00
  WS02006249WS02006248    1.00   0.00  0.00  0.00  0.85  0.00  0.15  0.00  0.00  0.00
  WS02006248WS02006247    1.00   0.00  0.00  0.00  0.97  0.00  0.00  0.02  0.20  0.00
  WS02006247WS02006245    1.00   0.00  0.00  0.00  0.97  0.00  0.00  0.02  0.00  0.00
  WS02006245WS02006243    1.00   0.01  0.00  0.00  0.94  0.00  0.00  0.05  0.02  0.00
  WS02006243WS02006242    1.00   0.01  0.00  0.00  0.99  0.00  0.00  0.00  0.25  0.00
  WS02006242WS02006240    1.00   0.01  0.00  0.00  0.99  0.00  0.00  0.00  0.00  0.00
  WS02006240WS02006239    1.00   0.01  0.00  0.00  0.95  0.00  0.00  0.04  0.01  0.00
  WS02006239WS02006238    1.00   0.00  0.00  0.00  1.00  0.00  0.00  0.00  0.02  0.00
  WS02006238WS02006235    1.00   0.00  0.00  0.00  1.00  0.00  0.00  0.00  0.00  0.00
  WS02006235WS02006234    1.00   0.00  0.00  0.00  0.95  0.00  0.04  0.00  0.00  0.00
  WS02006234WS02006232    1.00   0.00  0.00  0.00  0.99  0.00  0.00  0.00  0.13  0.00
  WS02006232WS02006231    1.00   0.00  0.00  0.00  0.99  0.00  0.00  0.00  0.00  0.00
  WS02006231WS02006230    1.00   0.01  0.00  0.00  0.36  0.00  0.64  0.00  0.00  0.00
  WS02006230WS02006229    1.00   0.00  0.00  0.00  0.99  0.00  0.00  0.01  0.00  0.00
  WS02006228WS02006109    1.00   0.00  0.00  0.00  1.00  0.00  0.00  0.00  0.01  0.00
  WS02006116WS02004401    1.00   0.03  0.00  0.00  0.97  0.00  0.00  0.00  0.00  0.00
  WS02006115WS02006116    1.00   0.03  0.00  0.00  0.97  0.00  0.00  0.01  0.00  0.00
  WS02006113WS02006111    1.00   0.02  0.00  0.00  0.00  0.98  0.00  0.00  0.15  0.00
  WS02006112WS02006115    1.00   0.02  0.01  0.00  0.97  0.00  0.00  0.00  0.00  0.00
  WS02006111WS02006112    1.00   0.02  0.00  0.00  0.97  0.00  0.00  0.00  0.96  0.00
  WS02006110WS02006113    1.00   0.00  0.02  0.00  0.98  0.00  0.00  0.00  0.00  0.00
  WS02006109WS02006110    1.00   0.00  0.00  0.00  1.00  0.00  0.00  0.00  0.00  0.00
  WS02004411WS02004412    1.00   0.04  0.00  0.00  0.96  0.00  0.00  0.00  0.00  0.00
  WS02004401WS02004402    1.00   0.03  0.00  0.00  0.97  0.00  0.00  0.00  0.00  0.00
  WS02004413WS02003067    1.00   0.05  0.02  0.00  0.00  0.00  0.94  0.00  0.00  0.00
  WS02004412WS02004413    1.00   0.04  0.00  0.00  0.96  0.00  0.00  0.00  0.03  0.00
  WS02004410WS02004411    1.00   0.04  0.00  0.00  0.96  0.00  0.00  0.00  0.04  0.00
  WS02004409WS02004410    1.00   0.04  0.00  0.00  0.96  0.00  0.00  0.00  0.04  0.00
  WS02004407WS02004409    1.00   0.04  0.00  0.00  0.95  0.00  0.00  0.00  0.87  0.00
  WS02004406WS02004407    1.00   0.00  0.04  0.00  0.96  0.00  0.00  0.00  0.00  0.00
  WS02004405WS02004406    1.00   0.00  0.00  0.00  1.00  0.00  0.00  0.00  0.03  0.00
  WS02004404WS02004405    1.00   0.00  0.00  0.00  1.00  0.00  0.00  0.00  0.00  0.00
  WS02004403WS02004404    1.00   0.00  0.03  0.00  0.97  0.00  0.00  0.00  0.01  0.00
  WS02004402WS02004403    1.00   0.03  0.00  0.00  0.97  0.00  0.00  0.00  0.00  0.00
  WS02004139WS02001211    1.00   0.00  0.00  0.00  1.00  0.00  0.00  0.00  0.00  0.00
  WS02004138WS02004139    1.00   0.00  0.00  0.00  1.00  0.00  0.00  0.00  1.00  0.00
  WS02003067WS02003066    1.00   0.06  0.01  0.00  0.93  0.00  0.00  0.00  0.00  0.00
  WS02001213WS02003059    1.00   0.00  0.00  0.00  1.00  0.00  0.00  0.00  0.00  0.00
  WS02001212WS02001213    1.00   0.00  0.00  0.00  0.74  0.00  0.26  0.00  0.00  0.00
  WS02001211WS02001212    1.00   0.00  0.00  0.00  1.00  0.00  0.00  0.00  0.00  0.00
  WS02003072WS02003073    1.00   0.00  0.00  0.00  0.00  0.00  0.00  1.00  0.00  0.00
  WS02003069WS02003072    1.00   0.00  0.00  0.00  1.00  0.00  0.00  0.00  0.30  0.00
  WS02003060WS02003069    1.00   0.00  0.00  0.00  0.99  0.01  0.00  0.00  0.14  0.00
  WS02003059WS02003060    1.00   0.00  0.00  0.00  1.00  0.00  0.00  0.00  0.01  0.00
  HS02004901HS02004770    1.00   0.04  0.00  0.00  0.95  0.00  0.00  0.00  0.02  0.00
  HS02004876HS02004881    1.00   0.00  0.00  0.00  1.00  0.00  0.00  0.00  0.00  0.00
  HS02004870HS02004876    1.00   0.00  0.00  0.00  0.99  0.01  0.00  0.00  0.95  0.00
  HS02004842HS02004848    1.00   0.00  0.05  0.00  0.95  0.00  0.00  0.00  0.69  0.00
  HS02004837HS02004842    1.00   0.00  0.00  0.00  1.00  0.00  0.00  0.00  0.11  0.00
  HS02004830HS02004837    1.00   0.00  0.00  0.00  1.00  0.00  0.00  0.00  0.99  0.00
  HS02004824HS02004830    1.00   0.00  0.00  0.00  1.00  0.00  0.00  0.00  0.00  0.00
  HS02004817HS02004824    1.00   0.00  0.00  0.00  1.00  0.00  0.00  0.00  1.00  0.00
  HS02004770HS02004777    1.00   0.00  0.05  0.00  0.95  0.00  0.00  0.00  0.07  0.00
  HS02004799HS02004480    1.00   0.00  0.02  0.00  0.94  0.00  0.04  0.00  0.00  0.00
  HS02004792HS02004799    1.00   0.00  0.00  0.00  1.00  0.00  0.00  0.00  0.98  0.00
  HS02004788HS02004792    1.00   0.00  0.00  0.00  1.00  0.00  0.00  0.00  0.98  0.00
  HS02004785HS02004788    1.00   0.00  0.00  0.00  1.00  0.00  0.00  0.00  0.00  0.00
  HS02004777HS02004785    1.00   0.00  0.00  0.00  1.00  0.00  0.00  0.00  0.20  0.00
  HS02004480HS02004478    1.00   0.05  0.00  0.00  0.74  0.00  0.00  0.21  0.00  0.00
  HS02004479HS02004480    1.00   0.02  0.00  0.00  0.98  0.00  0.00  0.00  0.16  0.00
  HS02004862HS02004870    1.00   0.00  0.00  0.00  1.00  0.00  0.00  0.00  0.06  0.00
  HS02004848HS02004852    1.00   0.05  0.00  0.00  0.95  0.00  0.00  0.00  0.71  0.00
  HS02004856HS02004862    1.00   0.00  0.07  0.00  0.93  0.00  0.00  0.00  0.74  0.00
  HS02004852HS02004856    1.00   0.05  0.01  0.00  0.95  0.00  0.00  0.00  0.83  0.00
  HS02004802HS02004478    1.00   0.05  0.01  0.00  0.95  0.00  0.00  0.00  0.01  0.00
  HS02004478WS02006287    1.00   0.06  0.00  0.00  0.86  0.08  0.00  0.00  0.77  0.00
  HS02004817HS02004807    1.00   0.00  0.05  0.00  0.95  0.00  0.00  0.00  0.00  0.00
  HS02004807HS02004802    1.00   0.05  0.00  0.00  0.95  0.00  0.00  0.00  0.01  0.00
  YS02001759YS02001757    1.00   0.00  0.00  0.00  1.00  0.00  0.00  0.00  0.17  0.00
  YS02001762YS02001759    1.00   0.00  0.00  0.00  1.00  0.00  0.00  0.00  0.04  0.00
  YS02001765YS02001762    1.00   0.00  0.00  0.00  1.00  0.00  0.00  0.00  0.22  0.00
  YS02001770YS02001767    1.00   0.00  0.00  0.00  1.00  0.00  0.00  0.00  0.00  0.00
  YS02001774YS02001770    1.00   0.00  0.05  0.00  0.95  0.00  0.00  0.00  0.07  0.00
  YS02001779YS02001774    1.00   0.00  0.00  0.00  1.00  0.00  0.00  0.00  0.26  0.00
  YS02001649YS02001757    1.00   0.00  0.00  0.00  1.00  0.00  0.00  0.00  0.19  0.00
  YS02001767YS02001765    1.00   0.00  0.00  0.00  1.00  0.00  0.00  0.00  0.01  0.00
  YS02006561YS02001783    1.00   0.07  0.00  0.00  0.05  0.87  0.00  0.00  0.73  0.00
  YS02001783YS02001784    1.00   0.00  0.07  0.00  0.93  0.00  0.00  0.00  0.00  0.00
  YS02001784YS02001785    1.00   0.00  0.00  0.00  1.00  0.00  0.00  0.00  0.25  0.00
  YS02001788YS02001790    1.00   0.00  0.00  0.00  0.14  0.86  0.00  0.00  0.77  0.00
  YS02001790YS02001791    1.00   0.00  0.00  0.00  0.08  0.92  0.00  0.00  0.49  0.00
  YS02001791YS02001793    1.00   0.00  0.00  0.00  0.09  0.91  0.00  0.00  0.02  0.00
  YS02001910YS02001907    1.00   0.00  0.00  0.00  0.99  0.00  0.00  0.01  0.13  0.00
  YS02001786YS02001788    1.00   0.00  0.00  0.00  0.14  0.86  0.00  0.00  0.00  0.00
  YS02001915YS02001910    1.00   0.00  0.00  0.00  1.00  0.00  0.00  0.00  0.24  0.00
  YS02001918YS02001915    1.00   0.00  0.00  0.00  1.00  0.00  0.00  0.00  0.82  0.00
  YS02001923YS02001920    1.00   0.00  0.00  0.00  1.00  0.00  0.00  0.00  1.00  0.00
  YS02001926YS02001923    1.00   0.00  0.03  0.00  0.00  0.00  0.97  0.00  0.00  0.00
  YS02001929YS02001926    1.00   0.00  0.05  0.00  0.95  0.00  0.00  0.00  0.87  0.00
  YS02001920YS02001918    1.00   0.00  0.00  0.00  1.00  0.00  0.00  0.00  0.00  0.00
  YS02001629YS02163301    1.00   0.06  0.00  0.00  0.93  0.00  0.00  0.00  0.00  0.00
  YS02001619YS02001622    1.00   0.04  0.00  0.00  0.96  0.00  0.00  0.00  0.00  0.00
  YS02001622YS02001625    1.00   0.05  0.00  0.00  0.95  0.00  0.00  0.00  0.13  0.00
  YS02001625YS02001629    1.00   0.05  0.03  0.00  0.91  0.00  0.01  0.00  0.00  0.00
  YS02163301YS02001633    1.00   0.00  0.06  0.00  0.94  0.00  0.00  0.00  0.00  0.00
  YS02163601YS02164001    1.00   0.00  0.04  0.00  0.96  0.00  0.00  0.00  0.00  0.00
  YS02164001YS02001641    1.00   0.00  0.03  0.00  0.96  0.00  0.00  0.00  0.07  0.00
  YS02001641YS02001644    1.00   0.00  0.00  0.00  1.00  0.00  0.00  0.00  0.00  0.00
  YS02001647YS02001649    1.00   0.00  0.07  0.00  0.93  0.00  0.00  0.00  0.01  0.00
  YS02006553YS02006556    1.00   0.00  0.00  0.00  1.00  0.00  0.00  0.00  0.03  0.00
  YS02006556YS02006558    1.00   0.00  0.00  0.00  1.00  0.00  0.00  0.00  0.00  0.00
  YSB6556YSB1171          1.00   0.02  0.02  0.00  0.96  0.00  0.00  0.00  0.00  0.00
  YS02001907YS02006553    1.00   0.00  0.00  0.00  1.00  0.00  0.00  0.00  0.00  0.00
  YS02006558YS02006561    1.00   0.07  0.00  0.00  0.00  0.93  0.00  0.00  0.72  0.00
  YS02001633YS02163601    1.00   0.00  0.00  0.00  1.00  0.00  0.00  0.00  0.19  0.00
  YS02001644YS02001647    1.00   0.00  0.07  0.00  0.93  0.00  0.00  0.00  0.00  0.00
  YS02001745YS02001748    1.00   0.00  0.00  0.00  0.85  0.02  0.00  0.13  0.25  0.00
  YS02001748YS02001751    1.00   0.00  0.00  0.00  0.98  0.02  0.00  0.00  0.24  0.00
  YS02001751YS02001754    1.00   0.00  0.00  0.00  0.92  0.00  0.00  0.08  0.02  0.00
  YS02001754YS02001757    1.00   0.00  0.00  0.00  1.00  0.00  0.00  0.00  0.26  0.00
  YS02001882YS02001884    1.00   0.06  0.00  0.00  0.94  0.00  0.00  0.00  0.00  0.00
  YS02001884YS02001887    1.00   0.03  0.01  0.00  0.96  0.00  0.00  0.00  0.00  0.00
  YS02001890YS02001895    1.00   0.00  0.06  0.00  0.93  0.00  0.00  0.00  0.00  0.00
  YS02001895YS02001898    1.00   0.07  0.00  0.00  0.93  0.00  0.01  0.00  0.00  0.00
  YS02001898YS02001901    1.00   0.06  0.00  0.00  0.93  0.00  0.00  0.00  0.02  0.00
  YS02001901YS02001904    1.00   0.06  0.00  0.00  0.94  0.00  0.00  0.00  0.00  0.00
  YS02001904YS02001907    1.00   0.00  0.06  0.00  0.94  0.00  0.00  0.00  0.00  0.00
  YS02001887YS02001890    1.00   0.00  0.00  0.00  0.99  0.00  0.01  0.00  0.00  0.00
  YS02001652YS02001649    1.00   0.00  0.00  0.00  1.00  0.00  0.00  0.00  0.26  0.00
  YS02001655YS02001652    1.00   0.00  0.00  0.00  0.92  0.00  0.00  0.08  0.02  0.00
  YS02001658YS02001655    1.00   0.00  0.06  0.00  0.92  0.03  0.00  0.00  0.11  0.00
  YS02001661YS02001658    1.00   0.06  0.00  0.00  0.85  0.10  0.00  0.00  0.21  0.00
  YS02001664YS02001661    1.00   0.04  0.00  0.00  0.75  0.20  0.00  0.00  0.86  0.00
  YSB1154YSB6556          1.00   0.04  0.00  0.00  0.96  0.00  0.00  0.00  0.02  0.00
  YSB1174YSB1171          1.00   0.03  0.01  0.00  0.96  0.00  0.00  0.00  0.00  0.00
  YSB1171HS02004479       1.00   0.02  0.00  0.00  0.97  0.00  0.00  0.01  0.13  0.00
  HS02004881HS02006253    1.00   0.03  0.00  0.00  0.60  0.03  0.00  0.34  0.43  0.00
  YS02001793JiankangQianchi    1.00   0.00  0.00  0.00  0.34  0.66  0.00  0.00  0.24  0.00
  YS02001757CaochengTiaoxuchi    1.00   0.00  0.09  0.00  0.91  0.00  0.00  0.00  0.00  0.00
  WSF200WS02003060        1.00   0.00  0.04  0.00  0.65  0.31  0.00  0.00  0.56  0.00
  1                       1.00   0.00  0.00  0.00  0.00  1.00  0.00  0.00  0.44  0.00
  2                       1.00   0.82  0.00  0.00  0.00  0.18  0.00  0.00  0.03  0.00
  3                       1.00   0.30  0.00  0.00  0.00  0.70  0.00  0.00  0.28  0.00
  4                       1.00   1.00  0.00  0.00  0.00  0.00  0.00  0.00  0.00  0.00
  
  
  *************************
  Conduit Surcharge Summary
  *************************
  
  ----------------------------------------------------------------------------
                                                           Hours        Hours 
                         --------- Hours Full --------   Above Full   Capacity
  Conduit                Both Ends  Upstream  Dnstream   Normal Flow   Limited
  ----------------------------------------------------------------------------
  WS02006229WS02006228        0.70      0.82      0.70      2.23         0.70
  WS02006256WS02006235        5.59      5.59      6.81      2.99         0.01
  WS02006252WS02006251        0.41      0.41      0.88      0.76         0.01
  WS02006251WS02006249        0.01      0.01      0.01      0.43         0.01
  WS02006249WS02006248        0.01      0.01      0.01      2.57         0.01
  WS02006247WS02006245        0.01      0.01      0.01      3.51         0.01
  WS02006245WS02006243        0.01      0.01      0.01      0.02         0.01
  WS02006243WS02006242        0.01      0.01      0.37      0.01         0.01
  WS02006242WS02006240        0.06      0.06      0.60      0.87         0.01
  WS02006240WS02006239        0.09      0.09      0.12      0.01         0.01
  WS02006239WS02006238        0.50      0.50      0.61      0.01         0.01
  WS02006238WS02006235        0.51      0.51      0.76      0.01         0.01
  WS02006235WS02006234        0.12      0.12      0.44      5.58         0.01
  WS02006234WS02006232        0.16      0.16      0.82      0.01         0.01
  WS02006232WS02006231        0.01      0.01      0.82      0.01         0.01
  WS02006231WS02006230        0.01      0.01      0.01      5.68         0.01
  WS02006230WS02006229        1.42      1.75      1.42      5.80         1.42
  WS02006228WS02006109        0.77      1.01      0.77      4.11         0.77
  WS02006112WS02006115        0.01      0.01      0.19      0.01         0.01
  WS02006111WS02006112        0.01      0.01      2.50      0.01         0.01
  WS02006110WS02006113        0.01      0.01      0.91      0.01         0.01
  WS02006109WS02006110        0.12      0.12      1.01      0.12         0.01
  WS02004405WS02004406        0.01      0.01      0.01      0.15         0.01
  WS02004404WS02004405        0.01      0.01      0.01      5.63         0.01
  WS02003072WS02003073        0.01      0.01      0.01      3.39         0.01
  YS02001759YS02001757        5.22      5.22      5.36      0.01         0.01
  YS02001762YS02001759        5.15      5.15      5.22      0.01         0.01
  YS02001765YS02001762        5.03      5.03      5.15      0.01         0.01
  YS02001770YS02001767        4.75      4.76      4.81      0.01         0.58
  YS02001774YS02001770        4.43      4.43      5.12      0.01         0.01
  YS02001779YS02001774        2.76      2.76      5.12      0.01         0.01
  YS02001649YS02001757        5.17      5.17      5.36      0.01         0.01
  YS02001767YS02001765        4.81      4.81      5.03      0.01         0.01
  YS02001788YS02001790        0.01      0.01      0.37      0.01         0.01
  YS02001790YS02001791        0.37      0.37      0.41      0.01         0.01
  YS02001791YS02001793        0.41      0.41      0.52      0.01         0.01
  YS02001629YS02163301        4.35      4.35      4.53      0.01         0.01
  YS02001622YS02001625        0.01      0.01      3.61      0.01         0.01
  YS02001625YS02001629        0.01      0.01      3.61      0.01         0.01
  YS02163301YS02001633        4.53      4.53      5.05      0.01         0.01
  YS02163601YS02164001        5.03      5.03      5.17      0.01         0.01
  YS02164001YS02001641        5.03      5.03      5.09      0.01         0.01
  YS02001641YS02001644        5.09      5.09      5.09      0.01         0.24
  YS02001647YS02001649        3.52      3.52      5.17      0.01         0.01
  YS02001633YS02163601        4.97      4.97      5.17      0.01         0.01
  YS02001644YS02001647        3.52      3.52      5.09      0.01         0.01
  YS02001751YS02001754        0.01      0.01      3.24      0.01         0.01
  YS02001754YS02001757        3.51      3.51      5.36      0.01         0.01
  YS02001652YS02001649        3.71      3.71      5.17      0.01         0.01
  YS02001655YS02001652        0.01      0.01      3.39      0.01         0.01
  YS02001793JiankangQianchi        0.49      0.49      1.78      0.01         0.01
  YS02001757CaochengTiaoxuchi        0.01      0.01      5.36      0.01         0.01
  
  
  ***************
  Pumping Summary
  ***************
  
  ---------------------------------------------------------------------------------------------------------
                                                  Min       Avg       Max     Total     Power    % Time Off
                        Percent   Number of      Flow      Flow      Flow    Volume     Usage    Pump Curve
  Pump                 Utilized   Start-Ups       LPS       LPS       LPS  10^6 ltr     Kw-hr    Low   High
  ---------------------------------------------------------------------------------------------------------
  CC-Pump-1               39.08           6      0.00    127.68    200.00     1.334      3.75    0.0    7.4
  CC-Pump-2               56.09           5      0.00    127.24    200.00     1.874      5.48    0.0   17.7
  JK-Pump-1               65.94           7      0.00    132.40    300.00     1.965     31.43    0.0    0.0
  JK-Pump-2               76.59           9      0.00    112.24    299.99     1.798     30.55    0.0    0.0
  XR-Pump-1               82.96           7      0.00     60.40     95.00     1.482     16.19    0.0    0.0
  XR-Pump-2               82.96           6      0.00     67.26     95.00     1.624     17.98    0.0    0.0
  XR-Pump-3               82.98           5      0.00     74.52     95.00     1.767     18.26    0.0    0.0
  XR-Pump-4               59.56           8      0.00     63.59     95.00     1.083     11.97    0.0    0.0
  

  Analysis begun on:  Tue Dec 21 12:13:29 2021
  Analysis ended on:  Tue Dec 21 12:13:32 2021
  Total elapsed time: 00:00:03