
  EPA STORM WATER MANAGEMENT MODEL - VERSION 5.1 (Build 5.3.0.dev0)
  --------------------------------------------------------------

  WARNING 04: minimum elevation drop used for Conduit WS02004404WS02004405
  WARNING 03: negative offset ignored for Link YS02001904YS02001907
  
  *********************************************************
  NOTE: The summary statistics displayed in this report are
  based on results found at every computational time step,  
  not just on results from each reporting time step.
  *********************************************************
  
  ****************
  Analysis Options
  ****************
  Flow Units ............... LPS
  Process Models:
    Rainfall/Runoff ........ YES
    RDII ................... NO
    Snowmelt ............... NO
    Groundwater ............ NO
    Flow Routing ........... YES
    Ponding Allowed ........ NO
    Water Quality .......... NO
  Infiltration Method ...... HORTON
  Flow Routing Method ...... DYNWAVE
  Surcharge Method ......... EXTRAN
  Starting Date ............ 08/28/2015 08:00:00
  Ending Date .............. 08/28/2015 15:50:00
  Antecedent Dry Days ...... 8.0
  Report Time Step ......... 00:01:00
  Wet Time Step ............ 00:01:00
  Dry Time Step ............ 00:01:00
  Routing Time Step ........ 5.00 sec
  Variable Time Step ....... YES
  Maximum Trials ........... 8
  Number of Threads ........ 4
  Head Tolerance ........... 0.001500 m
  
  
  **************************        Volume         Depth
  Runoff Quantity Continuity     hectare-m            mm
  **************************     ---------       -------
  Total Precipitation ......         2.455         5.375
  Evaporation Loss .........         0.000         0.000
  Infiltration Loss ........         0.614         1.344
  Surface Runoff ...........         0.980         2.145
  Final Storage ............         0.862         1.887
  Continuity Error (%) .....        -0.018
  
  
  **************************        Volume        Volume
  Flow Routing Continuity        hectare-m      10^6 ltr
  **************************     ---------     ---------
  Dry Weather Inflow .......         0.616         6.165
  Wet Weather Inflow .......         0.979         9.790
  Groundwater Inflow .......         0.000         0.000
  RDII Inflow ..............         0.000         0.000
  External Inflow ..........         0.102         1.024
  External Outflow .........         1.414        14.142
  Flooding Loss ............         0.110         1.105
  Evaporation Loss .........         0.000         0.000
  Exfiltration Loss ........         0.000         0.000
  Initial Stored Volume ....         0.076         0.761
  Final Stored Volume ......         0.367         3.667
  Continuity Error (%) .....        -6.622
  
  
  *************************
  Highest Continuity Errors
  *************************
  Node JK-storage (-38.77%)
  Node HS02004842 (30.51%)
  Node YS02001884 (24.93%)
  Node YS02001774 (10.29%)
  Node YSB1171 (7.78%)
  
  
  ***************************
  Time-Step Critical Elements
  ***************************
  Link WS02006252WS02006251 (65.50%)
  Link 3 (26.34%)
  Link WS02006280WS02006229 (2.40%)
  Link WS02006238WS02006235 (1.83%)
  
  
  ********************************
  Highest Flow Instability Indexes
  ********************************
  Link WS02006113WS02006111 (48)
  Link WS02006111WS02006112 (21)
  Link YS02163301YS02001633 (3)
  Link YS02001629YS02163301 (3)
  Link YS02001765YS02001762 (3)
  
  
  *************************
  Routing Time Step Summary
  *************************
  Minimum Time Step           :     0.15 sec
  Average Time Step           :     0.95 sec
  Maximum Time Step           :     5.00 sec
  Percent in Steady State     :    -0.00
  Average Iterations per Step :     2.14
  Percent Not Converging      :     1.65
  
  
  ***************************
  Subcatchment Runoff Summary
  ***************************
  
  ------------------------------------------------------------------------------------------------------------------------------
                            Total      Total      Total      Total     Imperv       Perv      Total       Total     Peak  Runoff
                           Precip      Runon       Evap      Infil     Runoff     Runoff     Runoff      Runoff   Runoff   Coeff
  Subcatchment                 mm         mm         mm         mm         mm         mm         mm    10^6 ltr      LPS
  ------------------------------------------------------------------------------------------------------------------------------
  sub0                       5.37       0.00       0.00       0.38       3.73       0.00       3.73        0.00     1.27   0.695
  sub1                       5.37       0.00       0.00       0.59       3.53       0.00       3.53        0.02     6.53   0.657
  sub2                       5.37       0.00       0.00       1.99       2.48       0.00       2.48        0.02     5.75   0.462
  sub3                       5.37       0.00       0.00       1.99       2.45       0.00       2.45        0.06    11.75   0.455
  sub4                       5.37       0.00       0.00       0.59       3.39       0.00       3.39        0.07    13.11   0.632
  sub5                       5.37       0.00       0.00       0.38       3.69       0.00       3.69        0.04    11.61   0.686
  sub7                       5.37       0.00       0.00       0.48       3.64       0.00       3.64        0.01     4.14   0.677
  sub8                       5.37       0.00       0.00       0.48       3.63       0.00       3.63        0.02     7.27   0.675
  sub9                       5.37       0.00       0.00       0.48       3.63       0.00       3.63        0.02     5.38   0.675
  sub10                      5.37       0.00       0.00       0.43       3.65       0.00       3.65        0.04    11.61   0.680
  sub11                      5.37       0.00       0.00       0.43       3.67       0.00       3.67        0.04    13.69   0.683
  sub12                      5.37       0.00       0.00       0.70       3.49       0.00       3.49        0.03    11.71   0.649
  sub14                      5.37       0.00       0.00       0.48       3.62       0.00       3.62        0.03    10.51   0.674
  sub15                      5.37       0.00       0.00       1.61       2.78       0.00       2.78        0.05    14.25   0.518
  sub16                      5.37       0.00       0.00       1.77       2.68       0.00       2.68        0.03    10.26   0.499
  sub17                      5.37       0.00       0.00       1.72       2.72       0.00       2.72        0.02     8.28   0.506
  sub22                      5.37       0.00       0.00       2.31       2.28       0.00       2.28        0.14    46.88   0.423
  sub23                      5.37       0.00       0.00       1.99       2.52       0.00       2.52        0.12    39.98   0.468
  sub60                      5.37       0.00       0.00       0.64       2.37       0.00       2.37        0.72    64.64   0.442
  sub61                      5.37       0.00       0.00       0.91       2.56       0.00       2.56        0.79    81.69   0.477
  sub62                      5.37       0.00       0.00       0.43       2.74       0.00       2.74        0.84    83.30   0.510
  sub63                      5.37       0.00       0.00       1.56       2.29       0.00       2.29        0.69    76.49   0.426
  sub64                      5.37       0.00       0.00       0.81       2.27       0.00       2.27        0.69    61.36   0.422
  sub65                      5.37       0.00       0.00       0.70       2.29       0.00       2.29        0.71    62.22   0.427
  sub66                      5.37       0.00       0.00       1.56       1.98       0.00       1.98        0.61    56.37   0.369
  sub67                      5.37       0.00       0.00       0.43       3.04       0.00       3.04        0.94   107.71   0.565
  sub68                      5.37       0.00       0.00       0.75       2.73       0.00       2.73        0.84    90.50   0.508
  sub69                      5.37       0.00       0.00       0.81       2.97       0.00       2.97        0.69    90.66   0.553
  sub70                      5.37       3.03       0.00       2.86       3.59       0.00       3.59        0.82    70.94   0.427
  sub71                      5.37       0.00       0.00       0.43       2.61       0.00       2.61        0.62    57.99   0.486
  sub72                      5.37       0.00       0.00       0.38       1.81       0.00       1.81        0.37    26.99   0.337
  sub73                      5.37       3.49       0.00       3.01       3.60       0.00       3.60        0.85    60.66   0.406
  sub74                      5.37       0.00       0.00       4.03       0.90       0.00       0.90        0.36    50.75   0.167
  
  
  ******************
  Node Depth Summary
  ******************
  
  ---------------------------------------------------------------------------------
                                 Average  Maximum  Maximum  Time of Max    Reported
                                   Depth    Depth      HGL   Occurrence   Max Depth
  Node                 Type       Meters   Meters   Meters  days hr:min      Meters
  ---------------------------------------------------------------------------------
  WS02001211           JUNCTION     0.61     0.77     5.61     0  03:40        0.77
  WS02001212           JUNCTION     0.34     0.48     5.54     0  03:41        0.48
  WS02001213           JUNCTION     0.57     0.72     5.48     0  03:41        0.72
  WS02003069           JUNCTION     0.40     0.52     5.10     0  03:42        0.52
  WS02003072           JUNCTION     0.47     0.58     4.95     0  03:43        0.58
  WS02003073           JUNCTION     0.28     0.35     4.42     0  03:43        0.35
  WS02003060           JUNCTION     0.36     0.46     5.39     0  03:41        0.46
  WS02003066           JUNCTION     0.22     0.28     5.83     0  02:44        0.28
  WS02003059           JUNCTION     0.64     0.77     5.46     0  03:42        0.77
  WS02003067           JUNCTION     0.55     0.67     5.99     0  02:44        0.67
  WS02004401           JUNCTION     0.64     0.80     6.80     0  02:40        0.80
  WS02004402           JUNCTION     0.67     0.83     6.79     0  02:40        0.83
  WS02004403           JUNCTION     0.69     0.84     6.77     0  02:40        0.84
  WS02004404           JUNCTION     0.77     0.92     6.77     0  02:40        0.92
  WS02004406           JUNCTION     0.78     0.92     6.75     0  02:40        0.92
  WS02004409           JUNCTION     0.46     0.62     6.39     0  02:43        0.62
  WS02004410           JUNCTION     0.48     0.63     6.35     0  02:43        0.63
  WS02004411           JUNCTION     0.49     0.64     6.32     0  02:43        0.64
  WS02004412           JUNCTION     0.51     0.66     6.30     0  02:44        0.66
  WS02004413           JUNCTION     0.67     0.82     6.29     0  02:44        0.82
  WS02004405           JUNCTION     0.76     0.91     6.76     0  02:40        0.91
  WS02006109           JUNCTION     0.71     0.89     7.51     0  03:02        0.89
  WS02006110           JUNCTION     0.71     0.87     7.45     0  03:02        0.87
  WS02006111           JUNCTION     0.21     0.27     6.97     0  03:03        0.27
  WS02006112           JUNCTION     0.80     0.98     6.86     0  02:39        0.98
  WS02006113           JUNCTION     0.32     0.42     7.31     0  03:02        0.42
  WS02006115           JUNCTION     0.53     0.69     6.83     0  02:40        0.69
  WS02006116           JUNCTION     0.61     0.77     6.81     0  02:40        0.77
  WS02006230           JUNCTION     0.67     0.92     7.67     0  03:02        0.92
  WS02006231           JUNCTION     0.44     0.62     7.74     0  03:02        0.62
  WS02006232           JUNCTION     0.58     0.76     7.80     0  03:02        0.76
  WS02006234           JUNCTION     0.49     0.71     7.87     0  03:01        0.71
  WS02006235           JUNCTION     0.53     0.75     7.91     0  03:01        0.75
  WS02006238           JUNCTION     0.55     0.78     7.92     0  03:01        0.78
  WS02006240           JUNCTION     0.44     0.71     8.00     0  03:01        0.71
  WS02006242           JUNCTION     0.49     0.78     8.05     0  03:01        0.78
  WS02006243           JUNCTION     0.37     0.67     8.09     0  03:01        0.67
  WS02006245           JUNCTION     0.35     0.64     8.13     0  03:01        0.64
  WS02006247           JUNCTION     0.37     0.65     8.15     0  03:01        0.65
  WS02006248           JUNCTION     0.32     0.59     8.17     0  03:01        0.58
  WS02006249           JUNCTION     0.36     0.60     8.20     0  03:01        0.60
  WS02006239           JUNCTION     0.50     0.75     7.96     0  03:01        0.75
  WS02006251           JUNCTION     0.34     0.62     8.29     0  03:00        0.62
  WS02006252           JUNCTION     0.31     0.58     8.83     0  03:00        0.58
  WS02006253           JUNCTION     0.37     0.65     8.29     0  03:00        0.64
  WS02006256           JUNCTION     1.00     2.35     9.28     0  00:00        1.19
  WS02004138           JUNCTION     0.13     0.19     7.44     0  05:20        0.19
  WS02004407           JUNCTION     0.21     0.28     6.59     0  02:41        0.28
  WS02006228           JUNCTION     0.71     0.91     7.56     0  03:02        0.91
  WS02006229           JUNCTION     0.68     0.90     7.60     0  03:02        0.90
  WS02006280           JUNCTION     0.05     0.14     8.41     0  02:19        0.14
  WS02006284           JUNCTION     0.35     0.47     8.87     0  02:19        0.47
  WS02006287           JUNCTION     0.08     0.20     9.15     0  02:19        0.20
  WSF200               JUNCTION     0.20     0.28     5.52     0  02:42        0.28
  HS02004901           JUNCTION     0.11     0.22    10.04     0  02:17        0.22
  HS02004881           JUNCTION     0.01     0.02     9.05     0  02:18        0.02
  HS02004876           JUNCTION     0.03     0.10     9.13     0  02:17        0.10
  HS02004870           JUNCTION     0.01     0.04     9.32     0  02:19        0.04
  HS02004862           JUNCTION     0.01     0.04     9.43     0  02:20        0.04
  HS02004856           JUNCTION     0.07     0.10     9.53     0  02:19        0.10
  HS02004852           JUNCTION     0.01     0.02     9.54     0  02:20        0.02
  HS02004848           JUNCTION     0.01     0.02     9.63     0  02:18        0.02
  HS02004842           JUNCTION     0.33     0.36     9.63     0  02:18        0.36
  HS02004837           JUNCTION     0.03     0.05     9.63     0  02:18        0.05
  HS02004830           JUNCTION     0.04     0.06     9.53     0  02:18        0.06
  HS02004824           JUNCTION     0.02     0.04     9.44     0  02:22        0.04
  HS02004817           JUNCTION     0.42     0.51     9.36     0  02:19        0.51
  HS02004807           JUNCTION     0.11     0.19     9.36     0  02:19        0.19
  HS02004802           JUNCTION     0.15     0.23     9.36     0  02:19        0.23
  HS02004799           JUNCTION     0.10     0.24     9.45     0  02:17        0.24
  HS02004792           JUNCTION     0.02     0.09     9.61     0  02:16        0.09
  HS02004788           JUNCTION     0.02     0.07     9.97     0  02:18        0.07
  HS02004785           JUNCTION     0.03     0.13    10.03     0  02:17        0.13
  HS02004777           JUNCTION     0.13     0.24    10.04     0  02:17        0.24
  HS02004770           JUNCTION     0.10     0.21    10.04     0  02:17        0.21
  HS02004480           JUNCTION     0.06     0.19     9.43     0  02:17        0.19
  HS02004479           JUNCTION     0.10     0.22     9.43     0  02:18        0.22
  HS02004478           JUNCTION     0.05     0.12     9.34     0  02:18        0.12
  YS02001745           JUNCTION     0.07     0.11     7.63     0  03:01        0.11
  YS02001748           JUNCTION     0.31     0.45     7.53     0  06:47        0.45
  YS02001751           JUNCTION     0.49     0.65     7.53     0  06:46        0.64
  YS02001754           JUNCTION     0.74     0.92     7.53     0  06:45        0.91
  YS02001762           JUNCTION     0.94     1.17     7.57     0  04:53        1.12
  YS02001765           JUNCTION     0.89     1.11     7.56     0  04:54        1.07
  YS02001767           JUNCTION     0.86     1.07     7.56     0  04:54        1.03
  YS02001770           JUNCTION     0.85     1.03     7.52     0  06:45        1.03
  YS02001774           JUNCTION     0.92     1.10     7.52     0  06:47        1.10
  YS02001779           JUNCTION     0.67     0.84     7.53     0  06:44        0.84
  YS02001882           JUNCTION     0.27     0.42     7.13     0  02:54        0.42
  YS02001884           JUNCTION     0.36     0.52     7.13     0  02:53        0.52
  YS02001759           JUNCTION     0.97     1.19     7.55     0  04:53        1.16
  YS02001887           JUNCTION     0.44     0.60     7.13     0  02:53        0.60
  YS02001890           JUNCTION     0.47     0.63     7.13     0  02:54        0.63
  YS02001898           JUNCTION     0.24     0.38     7.12     0  02:54        0.38
  YS02001901           JUNCTION     0.36     0.51     7.12     0  02:55        0.51
  YS02001904           JUNCTION     0.34     0.48     7.11     0  02:55        0.48
  YS02001907           JUNCTION     0.67     0.83     7.12     0  02:54        0.83
  YS02001910           JUNCTION     0.46     0.61     7.12     0  02:54        0.61
  YS02001915           JUNCTION     0.26     0.40     7.12     0  02:54        0.40
  YS02001918           JUNCTION     0.07     0.09     7.16     0  03:03        0.09
  YS02001619           JUNCTION     0.45     0.60     7.53     0  06:47        0.59
  YS02001629           JUNCTION     0.80     0.98     7.53     0  06:46        0.98
  YS02001641           JUNCTION     0.91     1.12     7.56     0  05:04        1.08
  YS02001644           JUNCTION     0.91     1.12     7.55     0  05:04        1.09
  YS02001652           JUNCTION     0.76     0.93     7.53     0  06:45        0.93
  YS02001655           JUNCTION     0.52     0.68     7.53     0  06:45        0.68
  YS02001920           JUNCTION     0.17     0.19     7.20     0  03:02        0.19
  YS02001923           JUNCTION     0.06     0.08     7.34     0  03:02        0.08
  YS02001926           JUNCTION     0.13     0.16     7.61     0  03:01        0.16
  YS02001929           JUNCTION     0.06     0.08     7.77     0  03:01        0.08
  YS02001658           JUNCTION     0.25     0.39     7.53     0  06:45        0.37
  YS02001661           JUNCTION     0.14     0.19     7.59     0  02:45        0.19
  YS02001664           JUNCTION     0.06     0.11     8.03     0  02:45        0.11
  YS02001622           JUNCTION     0.47     0.62     7.52     0  06:46        0.62
  YS02001633           JUNCTION     0.89     1.10     7.55     0  05:00        1.08
  YS02001649           JUNCTION     0.95     1.13     7.52     0  06:45        1.13
  YS02001757           JUNCTION     1.07     1.26     7.52     0  06:45        1.26
  YS02001895           JUNCTION     0.24     0.38     7.13     0  02:54        0.38
  YS02001625           JUNCTION     0.75     0.92     7.53     0  06:47        0.92
  YS02163301           JUNCTION     0.83     1.01     7.53     0  06:48        1.01
  YS02163601           JUNCTION     0.95     1.13     7.53     0  05:04        1.12
  YS02164001           JUNCTION     0.89     1.09     7.55     0  04:54        1.06
  YS02001647           JUNCTION     0.74     0.92     7.53     0  06:46        0.91
  YSB1154              JUNCTION     0.24     0.37     9.43     0  02:18        0.37
  YSB6556              JUNCTION     0.13     0.26     9.43     0  02:17        0.26
  YSB1174              JUNCTION     0.19     0.32     9.43     0  02:18        0.32
  YSB1171              JUNCTION     0.39     0.52     9.43     0  02:17        0.52
  YS02006553           JUNCTION     0.67     0.83     7.11     0  02:54        0.83
  YS02006561           JUNCTION     0.13     0.21     6.87     0  02:55        0.21
  YS02006556           JUNCTION     0.65     0.80     7.11     0  02:55        0.80
  YS02006558           JUNCTION     0.69     0.84     7.11     0  02:55        0.84
  YS02001783           JUNCTION     0.23     0.37     6.51     0  02:55        0.37
  YS02001784           JUNCTION     0.26     0.40     6.47     0  02:55        0.40
  YS02001786           JUNCTION     0.22     0.34     6.37     0  02:55        0.34
  YS02001788           JUNCTION     0.16     0.25     6.23     0  02:56        0.25
  YS02001790           JUNCTION     0.19     0.31     5.95     0  02:56        0.31
  YS02001791           JUNCTION     0.13     0.20     5.67     0  02:56        0.20
  YS02001793           JUNCTION     0.08     0.13     4.96     0  02:56        0.13
  WS02004139           JUNCTION     0.55     0.71     5.62     0  03:40        0.71
  WSC                  OUTFALL      0.28     0.35     1.02     0  03:44        0.35
  3                    OUTFALL      0.07     0.23     6.23     0  00:00        0.19
  4                    OUTFALL      0.01     0.10     7.10     0  03:01        0.10
  5                    OUTFALL      0.00     0.00     5.00     0  00:00        0.00
  JK-storage           STORAGE      0.05     3.00     3.80     0  00:00        2.39
  CC-storage           STORAGE      0.32     0.52     7.52     0  06:45        0.52
  XR-storage           STORAGE      7.38     7.72     5.72     0  02:49        7.72
  
  
  *******************
  Node Inflow Summary
  *******************
  
  -------------------------------------------------------------------------------------------------
                                  Maximum  Maximum                  Lateral       Total        Flow
                                  Lateral    Total  Time of Max      Inflow      Inflow     Balance
                                   Inflow   Inflow   Occurrence      Volume      Volume       Error
  Node                 Type           LPS      LPS  days hr:min    10^6 ltr    10^6 ltr     Percent
  -------------------------------------------------------------------------------------------------
  WS02001211           JUNCTION      7.35   381.02     0  03:40       0.207         5.6       0.444
  WS02001212           JUNCTION      0.00   376.72     0  03:41           0        5.58       0.250
  WS02001213           JUNCTION      0.00   375.51     0  03:41           0        5.57       0.292
  WS02003069           JUNCTION      0.32   770.06     0  03:42     0.00902          12       0.193
  WS02003072           JUNCTION      0.00   769.75     0  03:42           0          12       0.249
  WS02003073           JUNCTION      1.82   771.30     0  03:43      0.0514          12       0.277
  WS02003060           JUNCTION     16.53   770.23     0  03:41       0.466        12.1       0.186
  WS02003066           JUNCTION      0.00   466.19     0  02:44           0        6.08       0.072
  WS02003059           JUNCTION      0.00   375.44     0  03:41           0        5.55       0.595
  WS02003067           JUNCTION      0.00   466.17     0  02:44           0        6.09       0.152
  WS02004401           JUNCTION      0.00   468.40     0  02:39           0        6.31       0.332
  WS02004402           JUNCTION      0.00   468.09     0  02:39           0        6.29       0.314
  WS02004403           JUNCTION      0.00   467.94     0  02:40           0        6.27       0.287
  WS02004404           JUNCTION      0.16   468.03     0  02:40     0.00457        6.26       0.216
  WS02004406           JUNCTION      0.00   468.03     0  02:40           0        6.23       0.528
  WS02004409           JUNCTION      0.00   468.00     0  02:41           0        6.19       0.257
  WS02004410           JUNCTION      0.00   467.25     0  02:42           0        6.17       0.293
  WS02004411           JUNCTION      0.00   466.73     0  02:42           0        6.15       0.301
  WS02004412           JUNCTION      0.00   466.42     0  02:43           0        6.14       0.328
  WS02004413           JUNCTION      0.00   466.24     0  02:43           0        6.12       0.487
  WS02004405           JUNCTION      0.04   468.05     0  02:40     0.00107        6.25       0.327
  WS02006109           JUNCTION      1.23   468.28     0  03:02      0.0347        6.41       0.322
  WS02006110           JUNCTION      0.00   468.29     0  03:02           0        6.39       0.300
  WS02006111           JUNCTION      0.00   483.40     0  03:02           0        6.36       0.063
  WS02006112           JUNCTION      8.28   472.94     0  02:36      0.0233        6.38       0.428
  WS02006113           JUNCTION      0.00   468.36     0  03:02           0        6.37       0.145
  WS02006115           JUNCTION      0.00   470.14     0  02:37           0        6.35       0.311
  WS02006116           JUNCTION      0.00   468.96     0  02:38           0        6.33       0.300
  WS02006230           JUNCTION     10.28   394.27     0  03:22        0.29        5.59       0.250
  WS02006231           JUNCTION      0.00   384.78     0  04:32           0        5.31       0.168
  WS02006232           JUNCTION      0.00   385.01     0  04:32           0        5.32       0.294
  WS02006234           JUNCTION      0.00   386.30     0  04:31           0        5.33       0.138
  WS02006235           JUNCTION      0.00   386.64     0  04:31           0        5.36       0.190
  WS02006238           JUNCTION      0.00   308.45     0  03:30           0        3.33       0.218
  WS02006240           JUNCTION      0.00   308.48     0  04:31           0        3.33       0.333
  WS02006242           JUNCTION      0.00   310.74     0  04:30           0        3.34       0.414
  WS02006243           JUNCTION      0.00   318.56     0  04:30           0        3.34      -0.001
  WS02006245           JUNCTION      0.00   322.96     0  04:30           0        3.35       0.311
  WS02006247           JUNCTION      0.00   327.54     0  04:30           0        3.35       0.191
  WS02006248           JUNCTION      0.00   331.93     0  04:30           0        3.35       0.042
  WS02006249           JUNCTION      0.00   407.67     0  03:00           0        3.46       0.408
  WS02006239           JUNCTION      0.00   305.60     0  04:31           0        3.33       0.324
  WS02006251           JUNCTION      0.08   410.11     0  03:00     0.00217        3.49       0.238
  WS02006252           JUNCTION      0.00   399.98     0  03:20           0        3.34       0.013
  WS02006253           JUNCTION      1.27    36.03     0  02:18     0.00302       0.149       2.646
  WS02006256           JUNCTION      0.00   600.00     0  00:00           0         4.1       0.046
  WS02004138           JUNCTION      0.00   379.97     0  05:20           0        5.41       0.037
  WS02004407           JUNCTION      0.00   468.02     0  02:41           0        6.19       0.115
  WS02006228           JUNCTION      0.00   467.05     0  03:02           0        6.39       0.239
  WS02006229           JUNCTION      0.00   467.02     0  03:02           0         6.4       0.180
  WS02006280           JUNCTION      0.00   186.85     0  02:19           0       0.826       0.008
  WS02006284           JUNCTION      0.10   186.85     0  02:19      0.0027       0.827       0.129
  WS02006287           JUNCTION      0.00   186.77     0  02:19           0       0.825       0.088
  WSF200               JUNCTION      0.00   466.19     0  02:44           0        6.07       0.070
  HS02004901           JUNCTION     10.26    10.26     0  02:11      0.0281      0.0282       6.639
  HS02004881           JUNCTION      4.14    35.06     0  02:18      0.0122       0.128       0.212
  HS02004876           JUNCTION      6.53    31.24     0  02:18      0.0235       0.117       0.452
  HS02004870           JUNCTION      7.27    24.85     0  02:18      0.0232      0.0932       0.114
  HS02004862           JUNCTION      5.95    18.09     0  02:19      0.0287      0.0702       0.240
  HS02004856           JUNCTION      5.38    12.19     0  02:18      0.0174      0.0429       3.470
  HS02004852           JUNCTION      0.00     7.16     0  02:18           0      0.0255       0.196
  HS02004848           JUNCTION     11.75    11.75     0  02:21      0.0551      0.0551       0.078
  HS02004842           JUNCTION      0.00     4.99     0  02:31           0      0.0426      43.907
  HS02004837           JUNCTION     17.96    22.24     0  02:17       0.219       0.249       0.328
  HS02004830           JUNCTION      0.15    22.38     0  02:18     0.00423       0.239       0.517
  HS02004824           JUNCTION     13.16    35.37     0  02:21      0.0722        0.31       0.174
  HS02004817           JUNCTION      0.60    35.97     0  02:22      0.0169       0.327       5.375
  HS02004807           JUNCTION     13.69    48.40     0  02:20      0.0426       0.353       1.213
  HS02004802           JUNCTION      0.00    48.62     0  02:21           0       0.348       1.176
  HS02004799           JUNCTION     10.51   117.86     0  02:16      0.0345       0.423       0.538
  HS02004792           JUNCTION     47.16   107.60     0  02:16       0.152       0.389       0.106
  HS02004788           JUNCTION     15.92    62.64     0  02:17       0.095       0.238       0.163
  HS02004785           JUNCTION      0.15    47.15     0  02:16     0.00423       0.145       0.332
  HS02004777           JUNCTION      0.03    47.61     0  02:14    0.000846       0.146       3.684
  HS02004770           JUNCTION     39.98    48.91     0  02:12        0.12       0.146       2.161
  HS02004480           JUNCTION      0.00   139.05     0  02:17           0       0.492       0.145
  HS02004479           JUNCTION      0.00    21.51     0  02:19           0      0.0817       0.900
  HS02004478           JUNCTION      0.00   186.76     0  02:18           0       0.825       0.076
  YS02001745           JUNCTION     64.65    64.65     0  03:01       0.719       0.719       0.109
  YS02001748           JUNCTION      0.04   163.43     0  03:53     0.00127       0.837       0.599
  YS02001751           JUNCTION      0.01   204.47     0  03:54     0.00031       0.832       1.536
  YS02001754           JUNCTION      0.26   160.06     0  03:51     0.00733       0.788       2.561
  YS02001762           JUNCTION      0.00   118.03     0  03:35           0       0.779       2.835
  YS02001765           JUNCTION      0.00   107.69     0  03:31           0       0.781       3.101
  YS02001767           JUNCTION      0.54   110.70     0  03:33      0.0151       0.802       4.388
  YS02001770           JUNCTION     83.46   111.54     0  04:25       0.846       0.952       3.153
  YS02001774           JUNCTION      0.00    67.31     0  04:25           0        0.23      11.471
  YS02001779           JUNCTION      0.01    62.83     0  04:25    0.000141       0.102      13.567
  YS02001882           JUNCTION      0.00     3.63     0  02:08           0     0.00472      51.974
  YS02001884           JUNCTION      0.00    10.62     0  02:08           0       0.019      33.212
  YS02001759           JUNCTION     81.73   182.38     0  02:52        0.79        1.54       1.507
  YS02001887           JUNCTION    108.16   108.16     0  02:43       0.949       0.958       0.737
  YS02001890           JUNCTION      0.00   107.47     0  02:46           0       0.936       0.829
  YS02001898           JUNCTION      0.00   106.97     0  02:49           0       0.924       0.226
  YS02001901           JUNCTION      0.00   106.83     0  02:48           0       0.924       0.585
  YS02001904           JUNCTION      0.00   106.52     0  02:50           0       0.923       0.545
  YS02001907           JUNCTION      0.00   193.24     0  02:56           0        1.97       1.119
  YS02001910           JUNCTION      0.00    87.96     0  03:00           0        1.06       0.951
  YS02001915           JUNCTION     58.01    87.61     0  03:01       0.617        1.06       0.414
  YS02001918           JUNCTION      0.00    29.86     0  03:02           0       0.447       0.235
  YS02001619           JUNCTION     56.37    56.37     0  02:59       0.608       0.612       0.962
  YS02001629           JUNCTION      0.00   112.74     0  04:00           0       0.601       2.989
  YS02001641           JUNCTION      0.00   130.54     0  03:59           0        1.18       1.602
  YS02001644           JUNCTION     61.40   193.86     0  03:10        0.69        1.85       1.276
  YS02001652           JUNCTION      0.00   142.09     0  03:57           0        0.78       2.523
  YS02001655           JUNCTION      0.15   194.49     0  03:59     0.00434        0.81       1.802
  YS02001920           JUNCTION      2.87    29.87     0  03:02      0.0809       0.449       0.435
  YS02001923           JUNCTION      0.04    27.01     0  03:01     0.00106       0.369       0.076
  YS02001926           JUNCTION      0.05    27.03     0  03:01     0.00147       0.369       0.548
  YS02001929           JUNCTION     26.99    26.99     0  03:01       0.368       0.368       0.073
  YS02001658           JUNCTION      0.00   152.47     0  04:00           0        0.81       0.627
  YS02001661           JUNCTION      0.00    76.48     0  02:45           0       0.692       0.097
  YS02001664           JUNCTION     76.49    76.49     0  02:45       0.692       0.692       0.023
  YS02001622           JUNCTION      0.00    85.00     0  04:06           0       0.612       2.771
  YS02001633           JUNCTION     62.42   141.25     0  02:59       0.711        1.23       2.547
  YS02001649           JUNCTION      0.00   291.61     0  03:26           0        2.54       1.464
  YS02001757           JUNCTION      0.00   481.57     0  03:04           0        4.65       2.007
  YS02001895           JUNCTION      0.00   107.14     0  02:46           0       0.928       0.389
  YS02001625           JUNCTION      0.00   131.04     0  04:06           0       0.634       5.264
  YS02163301           JUNCTION      0.00    92.29     0  03:25           0       0.551       4.188
  YS02163601           JUNCTION      0.11   139.92     0  03:30      0.0031         1.2       2.462
  YS02164001           JUNCTION      0.00   135.02     0  03:53           0        1.18       1.483
  YS02001647           JUNCTION      0.00   194.07     0  03:08           0        1.81       1.361
  YSB1154              JUNCTION     11.61    11.61     0  02:15      0.0418      0.0431       3.462
  YSB6556              JUNCTION      0.00    11.57     0  02:18           0      0.0442       2.900
  YSB1174              JUNCTION     11.71    11.71     0  02:10      0.0305      0.0315       4.246
  YSB1171              JUNCTION      0.00    21.62     0  02:17           0      0.0812       8.437
  YS02006553           JUNCTION      0.00   193.30     0  02:56           0        1.96       0.727
  YS02006561           JUNCTION      0.00   283.73     0  02:55           0        2.77       0.023
  YS02006556           JUNCTION      0.00   193.41     0  03:02           0        1.96       0.523
  YS02006558           JUNCTION     91.38   283.74     0  02:55       0.864         2.8       0.159
  YS02001783           JUNCTION      0.00   283.73     0  02:55           0        2.77       0.052
  YS02001784           JUNCTION      1.06   284.79     0  02:55      0.0299         2.8       0.086
  YS02001786           JUNCTION      0.06   284.83     0  02:55     0.00159         2.8       0.084
  YS02001788           JUNCTION      0.07   284.90     0  02:56       0.002         2.8       0.048
  YS02001790           JUNCTION      0.15   285.05     0  02:56     0.00437         2.8       0.060
  YS02001791           JUNCTION      0.00   285.05     0  02:56           0         2.8       0.030
  YS02001793           JUNCTION      0.00   285.05     0  02:56           0         2.8       0.012
  WS02004139           JUNCTION      0.32   379.54     0  05:20     0.00905        5.42       0.440
  WSC                  OUTFALL       0.00   770.92     0  03:44           0          12       0.000
  3                    OUTFALL       0.00   597.65     0  00:00           0        2.04       0.000
  4                    OUTFALL       0.00   100.87     0  03:01           0      0.0954       0.000
  5                    OUTFALL       0.00     0.00     0  00:00           0           0       0.000 ltr
  JK-storage           STORAGE       0.00   285.05     0  02:56           0        2.95     -27.939
  CC-storage           STORAGE       0.00   472.43     0  03:03           0        4.48       0.323
  XR-storage           STORAGE     305.10   305.10     0  02:53        6.84        7.44      -0.000
  
  
  **********************
  Node Surcharge Summary
  **********************
  
  Surcharging occurs when water rises above the top of the highest conduit.
  ---------------------------------------------------------------------
                                               Max. Height   Min. Depth
                                   Hours       Above Crown    Below Rim
  Node                 Type      Surcharged         Meters       Meters
  ---------------------------------------------------------------------
  WS02006109           JUNCTION        1.15          0.073        1.747
  WS02006232           JUNCTION        1.01          0.063        1.417
  WS02006235           JUNCTION        0.38          0.040        1.250
  WS02006238           JUNCTION        0.53          0.058        1.372
  WS02006242           JUNCTION        0.33          0.049        0.771
  WS02006239           JUNCTION        0.15          0.014        1.276
  WS02006252           JUNCTION        0.70          0.184        0.916
  WS02006256           JUNCTION        0.01          1.050        0.000
  WS02006228           JUNCTION        1.13          0.084        2.116
  YS02001762           JUNCTION        3.85          0.166        0.984
  YS02001765           JUNCTION        2.59          0.112        0.988
  YS02001767           JUNCTION        0.93          0.073        0.957
  YS02001774           JUNCTION        3.19          0.101        0.949
  YS02001759           JUNCTION        4.43          0.186        1.024
  YS02001641           JUNCTION        2.92          0.118        0.982
  YS02001644           JUNCTION        3.04          0.121        0.799
  YS02001633           JUNCTION        1.49          0.080        0.980
  YS02001649           JUNCTION        3.95          0.134        0.916
  YS02001757           JUNCTION        5.23          0.263        0.947
  YS02163301           JUNCTION        0.21          0.009        1.021
  YS02163601           JUNCTION        3.90          0.132        0.948
  YS02164001           JUNCTION        2.34          0.091        1.009
  
  
  *********************
  Node Flooding Summary
  *********************
  
  Flooding refers to all water that overflows a node, whether it ponds or not.
  --------------------------------------------------------------------------
                                                             Total   Maximum
                                 Maximum   Time of Max       Flood    Ponded
                        Hours       Rate    Occurrence      Volume     Depth
  Node                 Flooded       LPS   days hr:min    10^6 ltr    Meters
  --------------------------------------------------------------------------
  WS02006256              0.01    406.11      0  00:00       0.001     0.000
  XR-storage              2.84    289.46      0  03:20       1.104     0.000
  
  
  **********************
  Storage Volume Summary
  **********************
  
  --------------------------------------------------------------------------------------------------
                         Average     Avg  Evap Exfil       Maximum     Max    Time of Max    Maximum
                          Volume    Pcnt  Pcnt  Pcnt        Volume    Pcnt     Occurrence    Outflow
  Storage Unit           1000 m3    Full  Loss  Loss       1000 m3    Full    days hr:min        LPS
  --------------------------------------------------------------------------------------------------
  JK-storage               0.003       1     0     0         0.151      52       0  00:00     600.00
  CC-storage               0.886       6     0     0         1.439       9       0  06:45     399.98
  XR-storage               0.885      96     0     0         0.926     100       0  02:49     379.97
  
  
  ***********************
  Outfall Loading Summary
  ***********************
  
  -----------------------------------------------------------
                         Flow       Avg       Max       Total
                         Freq      Flow      Flow      Volume
  Outfall Node           Pcnt       LPS       LPS    10^6 ltr
  -----------------------------------------------------------
  WSC                   99.99    504.38    770.92      12.003
  3                     77.78    139.50    597.65       2.044
  4                     14.51     38.63    100.87       0.095
  5                      0.00      0.00      0.00       0.000
  -----------------------------------------------------------
  System                48.07    682.51   1158.26      14.142
  
  
  ********************
  Link Flow Summary
  ********************
  
  -----------------------------------------------------------------------------
                                 Maximum  Time of Max   Maximum    Max/    Max/
                                  |Flow|   Occurrence   |Veloc|    Full    Full
  Link                 Type          LPS  days hr:min     m/sec    Flow   Depth
  -----------------------------------------------------------------------------
  WS02003066WSF200     CONDUIT    466.19     0  02:44      2.69    0.08    0.21
  WS02006287WS02006284 CONDUIT    186.75     0  02:19      1.57    0.09    0.21
  WS02006284WS02006280 CONDUIT    186.85     0  02:19      1.81    0.08    0.19
  WS02006280WS02006229 CONDUIT    186.85     0  02:19      2.91    0.04    0.14
  WS02006229WS02006228 CONDUIT    467.05     0  03:02      0.93    1.55    1.00
  WS02006256WS02006235 CONDUIT    177.52     0  00:01      2.73    1.88    1.00
  WS02006253WS02006251 CONDUIT     36.10     0  02:19      0.47    0.11    0.90
  WS02006252WS02006251 CONDUIT    399.99     0  03:20      3.18    1.47    1.00
  WS02006251WS02006249 CONDUIT    407.67     0  03:00      1.15    1.18    0.87
  WS02006249WS02006248 CONDUIT    331.93     0  04:30      1.07    1.82    0.83
  WS02006248WS02006247 CONDUIT    327.54     0  04:30      1.03    0.71    0.88
  WS02006247WS02006245 CONDUIT    322.96     0  04:30      1.00    2.56    0.91
  WS02006245WS02006243 CONDUIT    318.56     0  04:30      1.07    0.94    0.93
  WS02006243WS02006242 CONDUIT    310.74     0  04:30      0.87    0.66    0.98
  WS02006242WS02006240 CONDUIT    308.48     0  04:31      0.81    1.23    1.00
  WS02006240WS02006239 CONDUIT    305.60     0  04:31      0.87    0.96    1.00
  WS02006239WS02006238 CONDUIT    308.45     0  03:30      0.84    0.99    1.00
  WS02006238WS02006235 CONDUIT    314.32     0  03:30      1.32    0.70    1.00
  WS02006235WS02006234 CONDUIT    386.30     0  04:31      1.01    4.08    0.99
  WS02006234WS02006232 CONDUIT    385.01     0  04:32      1.17    0.78    1.00
  WS02006232WS02006231 CONDUIT    384.78     0  04:32      1.05    0.81    0.94
  WS02006231WS02006230 CONDUIT    383.99     0  03:22      1.30    5.82    0.83
  WS02006230WS02006229 CONDUIT    394.32     0  03:22      1.02    8.78    1.00
  WS02006228WS02006109 CONDUIT    467.05     0  03:02      0.93    2.04    1.00
  WS02006116WS02004401 CONDUIT    468.40     0  02:39      0.71    0.65    0.78
  WS02006115WS02006116 CONDUIT    468.96     0  02:38      0.81    0.60    0.70
  WS02006113WS02006111 CONDUIT    483.40     0  03:02      2.34    0.58    0.43
  WS02006112WS02006115 CONDUIT    470.14     0  02:37      0.68    0.28    0.83
  WS02006111WS02006112 CONDUIT    470.90     0  03:03      1.34    0.22    0.66
  WS02006110WS02006113 CONDUIT    468.36     0  03:02      1.14    0.43    0.76
  WS02006109WS02006110 CONDUIT    468.29     0  03:02      0.94    0.90    0.97
  WS02004411WS02004412 CONDUIT    466.42     0  02:43      0.86    0.66    0.65
  WS02004401WS02004402 CONDUIT    468.09     0  02:39      0.69    0.56    0.81
  WS02004413WS02003067 CONDUIT    466.17     0  02:44      1.03    0.20    0.56
  WS02004412WS02004413 CONDUIT    466.24     0  02:43      0.75    0.31    0.74
  WS02004410WS02004411 CONDUIT    466.73     0  02:42      0.88    0.64    0.64
  WS02004409WS02004410 CONDUIT    467.25     0  02:42      0.91    0.60    0.62
  WS02004407WS02004409 CONDUIT    468.00     0  02:41      1.40    0.17    0.45
  WS02004406WS02004407 CONDUIT    468.02     0  02:41      0.96    0.21    0.60
  WS02004405WS02004406 CONDUIT    468.03     0  02:40      0.62    0.92    0.91
  WS02004404WS02004405 CONDUIT    468.01     0  02:40      0.62    4.59    0.91
  WS02004403WS02004404 CONDUIT    467.87     0  02:40      0.64    0.34    0.88
  WS02004402WS02004403 CONDUIT    467.94     0  02:40      0.67    0.67    0.83
  WS02004139WS02001211 CONDUIT    373.67     0  03:40      0.58    0.47    0.58
  WS02004138WS02004139 CONDUIT    379.22     0  05:20      2.39    0.08    0.43
  WS02003067WS02003066 CONDUIT    466.19     0  02:44      1.11    0.15    0.40
  WS02001213WS02003059 CONDUIT    375.44     0  03:41      0.67    0.62    0.73
  WS02001212WS02001213 CONDUIT    375.51     0  03:41      1.30    0.58    0.44
  WS02001211WS02001212 CONDUIT    376.72     0  03:41      0.76    0.29    0.62
  WS02003072WS02003073 CONDUIT    769.48     0  03:43      1.61    1.66    0.44
  WS02003069WS02003072 CONDUIT    769.75     0  03:42      1.52    0.37    0.46
  WS02003060WS02003069 CONDUIT    769.74     0  03:42      1.78    0.30    0.41
  WS02003059WS02003060 CONDUIT    376.15     0  03:42      0.91    0.25    0.61
  HS02004901HS02004770 CONDUIT      9.31     0  02:15      0.04    0.04    0.31
  HS02004876HS02004881 CONDUIT     31.29     0  02:19      0.52    0.33    0.09
  HS02004870HS02004876 CONDUIT     24.83     0  02:19      0.37    0.02    0.10
  HS02004842HS02004848 CONDUIT      4.99     0  02:31      0.03    0.00    0.27
  HS02004837HS02004842 CONDUIT      5.16     0  02:31      0.41    0.00    0.29
  HS02004830HS02004837 CONDUIT     22.23     0  02:18      0.43    0.02    0.07
  HS02004824HS02004830 CONDUIT     22.37     0  02:19      0.47    0.03    0.07
  HS02004817HS02004824 CONDUIT     35.37     0  02:22      0.17    0.02    0.39
  HS02004770HS02004777 CONDUIT     47.58     0  02:14      0.21    0.09    0.32
  HS02004799HS02004480 CONDUIT    117.65     0  02:17      0.56    0.15    0.30
  HS02004792HS02004799 CONDUIT    107.55     0  02:16      0.65    0.07    0.24
  HS02004788HS02004792 CONDUIT     62.59     0  02:18      0.80    0.04    0.11
  HS02004785HS02004788 CONDUIT     47.07     0  02:18      0.49    0.35    0.14
  HS02004777HS02004785 CONDUIT     47.00     0  02:16      0.26    0.06    0.26
  HS02004480HS02004478 CONDUIT    138.95     0  02:18      0.92    0.59    0.22
  HS02004479HS02004480 CONDUIT     21.74     0  02:20      0.16    0.02    0.29
  HS02004862HS02004870 CONDUIT     18.05     0  02:20      0.45    0.02    0.06
  HS02004848HS02004852 CONDUIT      7.16     0  02:18      0.30    0.01    0.03
  HS02004856HS02004862 CONDUIT     12.17     0  02:19      0.33    0.01    0.05
  HS02004852HS02004856 CONDUIT      7.13     0  02:20      0.11    0.01    0.09
  HS02004802HS02004478 CONDUIT     48.91     0  02:22      0.29    0.04    0.24
  HS02004478WS02006287 CONDUIT    186.77     0  02:19      1.26    0.05    0.16
  HS02004817HS02004807 CONDUIT     36.40     0  02:23      0.10    0.02    0.50
  HS02004807HS02004802 CONDUIT     48.62     0  02:21      0.24    0.09    0.29
  YS02001759YS02001757 CONDUIT    177.94     0  02:53      0.23    0.13    1.00
  YS02001762YS02001759 CONDUIT    114.48     0  03:34      0.17    0.13    1.00
  YS02001765YS02001762 CONDUIT    118.03     0  03:35      0.23    0.11    1.00
  YS02001770YS02001767 CONDUIT    110.17     0  03:33      0.32    0.44    1.00
  YS02001774YS02001770 CONDUIT     69.93     0  04:25      0.14    0.04    1.00
  YS02001779YS02001774 CONDUIT     62.83     0  04:25      0.09    0.03    0.92
  YS02001649YS02001757 CONDUIT    319.82     0  03:28      0.41    0.19    1.00
  YS02001767YS02001765 CONDUIT    107.69     0  03:31      0.26    0.14    1.00
  YS02006561YS02001783 CONDUIT    283.73     0  02:55      1.74    0.15    0.36
  YS02001783YS02001784 CONDUIT    283.73     0  02:55      1.19    0.39    0.48
  YS02001784YS02001785 CONDUIT    284.78     0  02:55      1.26    0.66    0.46
  YS02001788YS02001790 CONDUIT    284.90     0  02:56      1.83    0.21    0.35
  YS02001790YS02001791 CONDUIT    285.05     0  02:56      2.11    0.31    0.31
  YS02001791YS02001793 CONDUIT    285.05     0  02:56      4.00    0.12    0.21
  YS02001910YS02001907 CONDUIT     88.11     0  03:01      0.49    0.05    0.71
  YS02001786YS02001788 CONDUIT    284.83     0  02:56      1.70    0.55    0.37
  YS02001915YS02001910 CONDUIT     87.96     0  03:00      0.44    0.04    0.50
  YS02001918YS02001915 CONDUIT     29.84     0  03:03      0.44    0.02    0.24
  YS02001923YS02001920 CONDUIT     27.00     0  03:02      0.42    0.01    0.14
  YS02001926YS02001923 CONDUIT     26.97     0  03:01      0.47    0.04    0.13
  YS02001929YS02001926 CONDUIT     26.97     0  03:01      0.49    0.01    0.12
  YS02001920YS02001918 CONDUIT     29.86     0  03:02      0.44    0.03    0.14
  YS02001629YS02163301 CONDUIT     92.29     0  03:25      0.13    0.11    0.99
  YS02001619YS02001622 CONDUIT     85.00     0  04:06      0.64    0.13    0.61
  YS02001622YS02001625 CONDUIT     91.88     0  04:02      0.24    0.05    0.77
  YS02001625YS02001629 CONDUIT    112.74     0  04:00      0.24    0.05    0.76
  YS02163301YS02001633 CONDUIT     78.88     0  02:59      0.11    0.07    1.00
  YS02163601YS02164001 CONDUIT    135.02     0  03:53      0.17    0.12    1.00
  YS02164001YS02001641 CONDUIT    130.54     0  03:59      0.17    0.18    1.00
  YS02001641YS02001644 CONDUIT    136.42     0  03:10      0.18    0.44    1.00
  YS02001647YS02001649 CONDUIT    204.70     0  03:26      0.29    0.11    0.96
  YS02006553YS02006556 CONDUIT    193.41     0  03:02      0.29    0.17    0.80
  YS02006556YS02006558 CONDUIT    193.60     0  03:02      0.28    0.15    0.82
  YSB6556YSB1171       CONDUIT     11.75     0  02:19      0.05    0.01    0.56
  YS02001907YS02006553 CONDUIT    193.30     0  02:56      0.24    0.23    0.90
  YS02006558YS02006561 CONDUIT    283.73     0  02:55      2.24    0.63    0.46
  YS02001633YS02163601 CONDUIT    139.81     0  03:30      0.19    0.15    1.00
  YS02001644YS02001647 CONDUIT    194.07     0  03:08      0.27    0.11    0.96
  YS02001745YS02001748 CONDUIT     64.65     0  03:01      1.37    0.02    0.22
  YS02001748YS02001751 CONDUIT    204.46     0  03:54      1.06    0.10    0.54
  YS02001751YS02001754 CONDUIT     82.51     0  03:04      0.95    0.04    0.76
  YS02001754YS02001757 CONDUIT    183.11     0  03:34      0.33    0.07    0.96
  YS02001882YS02001884 CONDUIT      3.63     0  02:08      0.06    0.00    0.44
  YS02001884YS02001887 CONDUIT     10.62     0  02:08      0.06    0.01    0.53
  YS02001890YS02001895 CONDUIT    107.14     0  02:46      0.27    0.05    0.50
  YS02001895YS02001898 CONDUIT    106.97     0  02:49      0.47    0.19    0.37
  YS02001898YS02001901 CONDUIT    106.83     0  02:48      0.32    0.07    0.45
  YS02001901YS02001904 CONDUIT    106.52     0  02:50      0.27    0.17    0.50
  YS02001904YS02001907 CONDUIT    106.55     0  02:50      0.20    0.04    0.66
  YS02001887YS02001890 CONDUIT    107.47     0  02:46      0.23    0.18    0.59
  YS02001652YS02001649 CONDUIT    186.61     0  03:58      0.32    0.09    0.97
  YS02001655YS02001652 CONDUIT    109.05     0  03:26      1.03    0.05    0.79
  YS02001658YS02001655 CONDUIT    194.33     0  03:59      1.22    0.08    0.53
  YS02001661YS02001658 CONDUIT     76.48     0  02:45      1.41    0.03    0.22
  YS02001664YS02001661 CONDUIT     76.48     0  02:45      1.06    0.02    0.15
  YSB1154YSB6556       CONDUIT     11.57     0  02:18      0.19    0.02    0.45
  YSB1174YSB1171       CONDUIT     10.85     0  02:11      0.05    0.02    0.57
  YSB1171HS02004479    CONDUIT     21.51     0  02:19      0.54    0.01    0.44
  HS02004881HS02006253 CONDUIT     35.06     0  02:18      1.60    0.01    0.23
  YS02001793JiankangQianchi CONDUIT    285.05     0  02:56     12.82    0.02    0.50
  YS02001757CaochengTiaoxuchi CONDUIT    472.43     0  03:03      1.04    0.21    0.76
  WSF200WS02003060     CONDUIT    466.27     0  02:44      1.87    0.10    0.30
  1                    CONDUIT    770.92     0  03:44      3.10    0.27    0.35
  2                    CONDUIT    100.87     0  03:01      4.86    0.24    0.33
  3                    CONDUIT    597.65     0  00:00     10.05    0.95    0.86
  4                    CONDUIT      0.00     0  00:00      0.00    0.00    0.00
  CC-Pump-1            PUMP       200.00     0  03:00              1.00
  CC-Pump-2            PUMP       200.00     0  02:30              1.00
  JK-Pump-1            PUMP       300.00     0  00:00              1.00
  JK-Pump-2            PUMP       300.00     0  00:00              1.00
  XR-Pump-1            PUMP        95.00     0  00:40              1.00
  XR-Pump-2            PUMP        95.00     0  00:00              1.00
  XR-Pump-3            PUMP        95.00     0  01:20              1.00
  XR-Pump-4            PUMP        95.00     0  02:40              1.00
  
  
  ***************************
  Flow Classification Summary
  ***************************
  
  -------------------------------------------------------------------------------------
                      Adjusted    ---------- Fraction of Time in Flow Class ---------- 
                       /Actual         Up    Down  Sub   Sup   Up    Down  Norm  Inlet 
  Conduit               Length    Dry  Dry   Dry   Crit  Crit  Crit  Crit  Ltd   Ctrl  
  -------------------------------------------------------------------------------------
  WS02003066WSF200        1.00   0.06  0.01  0.00  0.00  0.92  0.00  0.00  0.69  0.00
  WS02006287WS02006284    1.00   0.04  0.02  0.00  0.68  0.27  0.00  0.00  0.78  0.00
  WS02006284WS02006280    1.00   0.04  0.00  0.00  0.00  0.00  0.00  0.96  0.00  0.00
  WS02006280WS02006229    1.00   0.04  0.00  0.00  0.00  0.00  0.00  0.96  0.00  0.00
  WS02006229WS02006228    1.00   0.00  0.00  0.00  0.98  0.00  0.00  0.02  0.00  0.00
  WS02006256WS02006235    1.00   0.00  0.00  0.00  1.00  0.00  0.00  0.00  0.00  0.00
  WS02006253WS02006251    1.00   0.03  0.01  0.00  0.96  0.00  0.00  0.00  0.00  0.00
  WS02006252WS02006251    1.00   0.08  0.01  0.00  0.00  0.00  0.91  0.00  0.00  0.00
  WS02006251WS02006249    1.00   0.00  0.00  0.00  1.00  0.00  0.00  0.00  0.34  0.00
  WS02006249WS02006248    1.00   0.00  0.02  0.00  0.83  0.00  0.15  0.00  0.00  0.00
  WS02006248WS02006247    1.00   0.02  0.00  0.00  0.97  0.00  0.00  0.01  0.25  0.00
  WS02006247WS02006245    1.00   0.02  0.00  0.00  0.96  0.00  0.00  0.02  0.00  0.00
  WS02006245WS02006243    1.00   0.02  0.00  0.00  0.93  0.00  0.00  0.05  0.02  0.00
  WS02006243WS02006242    1.00   0.01  0.01  0.00  0.98  0.00  0.00  0.00  0.28  0.00
  WS02006242WS02006240    1.00   0.01  0.00  0.00  0.99  0.00  0.00  0.00  0.00  0.00
  WS02006240WS02006239    1.00   0.00  0.00  0.00  0.95  0.00  0.00  0.05  0.02  0.00
  WS02006239WS02006238    1.00   0.00  0.00  0.00  1.00  0.00  0.00  0.00  0.00  0.00
  WS02006238WS02006235    1.00   0.00  0.00  0.00  1.00  0.00  0.00  0.00  0.00  0.00
  WS02006235WS02006234    1.00   0.00  0.00  0.00  0.94  0.00  0.06  0.00  0.00  0.00
  WS02006234WS02006232    1.00   0.00  0.00  0.00  1.00  0.00  0.00  0.00  0.10  0.00
  WS02006232WS02006231    1.00   0.00  0.00  0.00  0.99  0.00  0.01  0.00  0.00  0.00
  WS02006231WS02006230    1.00   0.00  0.00  0.00  0.32  0.00  0.68  0.00  0.00  0.00
  WS02006230WS02006229    1.00   0.00  0.00  0.00  0.98  0.00  0.00  0.02  0.01  0.00
  WS02006228WS02006109    1.00   0.00  0.00  0.00  0.99  0.00  0.00  0.00  0.00  0.00
  WS02006116WS02004401    1.00   0.02  0.00  0.00  0.98  0.00  0.00  0.00  0.00  0.00
  WS02006115WS02006116    1.00   0.02  0.00  0.00  0.96  0.00  0.00  0.01  0.01  0.00
  WS02006113WS02006111    1.00   0.02  0.00  0.00  0.00  0.98  0.00  0.00  0.14  0.00
  WS02006112WS02006115    1.00   0.02  0.00  0.00  0.98  0.00  0.00  0.00  0.00  0.00
  WS02006111WS02006112    1.00   0.02  0.00  0.00  0.98  0.00  0.00  0.00  0.98  0.00
  WS02006110WS02006113    1.00   0.02  0.00  0.00  0.98  0.00  0.00  0.00  0.00  0.00
  WS02006109WS02006110    1.00   0.00  0.02  0.00  0.98  0.00  0.00  0.00  0.00  0.00
  WS02004411WS02004412    1.00   0.05  0.00  0.00  0.95  0.00  0.00  0.00  0.00  0.00
  WS02004401WS02004402    1.00   0.02  0.00  0.00  0.98  0.00  0.00  0.00  0.00  0.00
  WS02004413WS02003067    1.00   0.06  0.01  0.00  0.00  0.00  0.93  0.00  0.00  0.00
  WS02004412WS02004413    1.00   0.05  0.00  0.00  0.95  0.00  0.00  0.00  0.03  0.00
  WS02004410WS02004411    1.00   0.05  0.00  0.00  0.95  0.00  0.00  0.00  0.01  0.00
  WS02004409WS02004410    1.00   0.05  0.00  0.00  0.95  0.00  0.00  0.00  0.00  0.00
  WS02004407WS02004409    1.00   0.05  0.00  0.00  0.94  0.00  0.00  0.00  0.80  0.00
  WS02004406WS02004407    1.00   0.00  0.05  0.00  0.95  0.00  0.00  0.00  0.00  0.00
  WS02004405WS02004406    1.00   0.00  0.00  0.00  1.00  0.00  0.00  0.00  0.02  0.00
  WS02004404WS02004405    1.00   0.00  0.00  0.00  1.00  0.00  0.00  0.00  0.00  0.00
  WS02004403WS02004404    1.00   0.00  0.02  0.00  0.98  0.00  0.00  0.00  0.02  0.00
  WS02004402WS02004403    1.00   0.02  0.00  0.00  0.98  0.00  0.00  0.00  0.00  0.00
  WS02004139WS02001211    1.00   0.00  0.00  0.00  0.99  0.00  0.01  0.00  0.00  0.00
  WS02004138WS02004139    1.00   0.00  0.00  0.00  0.98  0.01  0.00  0.00  1.00  0.00
  WS02003067WS02003066    1.00   0.07  0.00  0.00  0.92  0.00  0.00  0.00  0.00  0.00
  WS02001213WS02003059    1.00   0.00  0.01  0.00  0.99  0.00  0.00  0.00  0.00  0.00
  WS02001212WS02001213    1.00   0.01  0.00  0.00  0.76  0.00  0.22  0.00  0.00  0.00
  WS02001211WS02001212    1.00   0.00  0.01  0.00  0.99  0.00  0.00  0.00  0.00  0.00
  WS02003072WS02003073    1.00   0.00  0.00  0.00  0.00  0.00  0.00  1.00  0.00  0.00
  WS02003069WS02003072    1.00   0.00  0.00  0.00  0.99  0.01  0.00  0.00  0.29  0.00
  WS02003060WS02003069    1.00   0.00  0.00  0.00  0.98  0.02  0.00  0.00  0.15  0.00
  WS02003059WS02003060    1.00   0.00  0.00  0.00  0.99  0.01  0.00  0.00  0.02  0.00
  HS02004901HS02004770    1.00   0.04  0.00  0.00  0.96  0.00  0.00  0.00  0.03  0.00
  HS02004876HS02004881    1.00   0.02  0.00  0.00  0.98  0.00  0.00  0.00  0.00  0.00
  HS02004870HS02004876    1.00   0.01  0.00  0.00  0.99  0.00  0.00  0.00  0.95  0.00
  HS02004842HS02004848    1.00   0.00  0.04  0.00  0.96  0.00  0.00  0.00  0.69  0.00
  HS02004837HS02004842    1.00   0.00  0.00  0.00  0.99  0.01  0.00  0.00  0.11  0.00
  HS02004830HS02004837    1.00   0.00  0.00  0.00  1.00  0.00  0.00  0.00  0.99  0.00
  HS02004824HS02004830    1.00   0.00  0.00  0.00  1.00  0.00  0.00  0.00  0.00  0.00
  HS02004817HS02004824    1.00   0.00  0.00  0.00  1.00  0.00  0.00  0.00  1.00  0.00
  HS02004770HS02004777    1.00   0.00  0.04  0.00  0.96  0.00  0.00  0.00  0.07  0.00
  HS02004799HS02004480    1.00   0.00  0.02  0.00  0.94  0.00  0.03  0.00  0.00  0.00
  HS02004792HS02004799    1.00   0.00  0.00  0.00  0.98  0.02  0.00  0.00  0.98  0.00
  HS02004788HS02004792    1.00   0.00  0.00  0.00  0.98  0.02  0.00  0.00  0.98  0.00
  HS02004785HS02004788    1.00   0.00  0.00  0.00  1.00  0.00  0.00  0.00  0.00  0.00
  HS02004777HS02004785    1.00   0.00  0.00  0.00  1.00  0.00  0.00  0.00  0.21  0.00
  HS02004480HS02004478    1.00   0.05  0.00  0.00  0.72  0.00  0.00  0.23  0.00  0.00
  HS02004479HS02004480    1.00   0.02  0.00  0.00  0.98  0.00  0.00  0.00  0.16  0.00
  HS02004862HS02004870    1.00   0.00  0.00  0.00  1.00  0.00  0.00  0.00  0.06  0.00
  HS02004848HS02004852    1.00   0.04  0.00  0.00  0.96  0.00  0.00  0.00  0.71  0.00
  HS02004856HS02004862    1.00   0.00  0.07  0.00  0.93  0.00  0.00  0.00  0.74  0.00
  HS02004852HS02004856    1.00   0.04  0.01  0.00  0.95  0.00  0.00  0.00  0.83  0.00
  HS02004802HS02004478    1.00   0.04  0.01  0.00  0.95  0.00  0.00  0.00  0.01  0.00
  HS02004478WS02006287    1.00   0.05  0.00  0.00  0.90  0.05  0.00  0.00  0.79  0.00
  HS02004817HS02004807    1.00   0.00  0.04  0.00  0.96  0.00  0.00  0.00  0.00  0.00
  HS02004807HS02004802    1.00   0.04  0.00  0.00  0.96  0.00  0.00  0.00  0.01  0.00
  YS02001759YS02001757    1.00   0.00  0.00  0.00  1.00  0.00  0.00  0.00  0.17  0.00
  YS02001762YS02001759    1.00   0.00  0.00  0.00  1.00  0.00  0.00  0.00  0.05  0.00
  YS02001765YS02001762    1.00   0.00  0.00  0.00  1.00  0.00  0.00  0.00  0.22  0.00
  YS02001770YS02001767    1.00   0.00  0.00  0.00  1.00  0.00  0.00  0.00  0.00  0.00
  YS02001774YS02001770    1.00   0.00  0.05  0.00  0.95  0.00  0.00  0.00  0.07  0.00
  YS02001779YS02001774    1.00   0.00  0.00  0.00  1.00  0.00  0.00  0.00  0.27  0.00
  YS02001649YS02001757    1.00   0.00  0.00  0.00  1.00  0.00  0.00  0.00  0.19  0.00
  YS02001767YS02001765    1.00   0.00  0.00  0.00  1.00  0.00  0.00  0.00  0.01  0.00
  YS02006561YS02001783    1.00   0.07  0.00  0.00  0.00  0.93  0.00  0.00  0.73  0.00
  YS02001783YS02001784    1.00   0.00  0.07  0.00  0.93  0.00  0.00  0.00  0.00  0.00
  YS02001784YS02001785    1.00   0.00  0.00  0.00  1.00  0.00  0.00  0.00  0.25  0.00
  YS02001788YS02001790    1.00   0.00  0.00  0.00  0.07  0.93  0.00  0.00  0.80  0.00
  YS02001790YS02001791    1.00   0.00  0.00  0.00  0.02  0.98  0.00  0.00  0.51  0.00
  YS02001791YS02001793    1.00   0.00  0.00  0.00  0.00  1.00  0.00  0.00  0.00  0.00
  YS02001910YS02001907    1.00   0.00  0.00  0.00  0.98  0.00  0.00  0.02  0.13  0.00
  YS02001786YS02001788    1.00   0.00  0.00  0.00  0.07  0.93  0.00  0.00  0.00  0.00
  YS02001915YS02001910    1.00   0.00  0.00  0.00  1.00  0.00  0.00  0.00  0.24  0.00
  YS02001918YS02001915    1.00   0.00  0.01  0.00  0.99  0.00  0.00  0.00  0.81  0.00
  YS02001923YS02001920    1.00   0.00  0.00  0.00  1.00  0.00  0.00  0.00  1.00  0.00
  YS02001926YS02001923    1.00   0.00  0.03  0.00  0.00  0.00  0.97  0.00  0.00  0.00
  YS02001929YS02001926    1.00   0.00  0.04  0.00  0.96  0.00  0.00  0.00  0.87  0.00
  YS02001920YS02001918    1.00   0.00  0.01  0.00  0.99  0.00  0.00  0.00  0.00  0.00
  YS02001629YS02163301    1.00   0.06  0.00  0.00  0.94  0.00  0.00  0.00  0.00  0.00
  YS02001619YS02001622    1.00   0.04  0.00  0.00  0.96  0.00  0.00  0.00  0.00  0.00
  YS02001622YS02001625    1.00   0.04  0.00  0.00  0.96  0.00  0.00  0.00  0.13  0.00
  YS02001625YS02001629    1.00   0.04  0.03  0.00  0.92  0.00  0.01  0.00  0.00  0.00
  YS02163301YS02001633    1.00   0.00  0.06  0.00  0.94  0.00  0.00  0.00  0.00  0.00
  YS02163601YS02164001    1.00   0.00  0.03  0.00  0.97  0.00  0.00  0.00  0.00  0.00
  YS02164001YS02001641    1.00   0.01  0.02  0.00  0.97  0.00  0.00  0.00  0.07  0.00
  YS02001641YS02001644    1.00   0.00  0.01  0.00  0.99  0.00  0.00  0.00  0.00  0.00
  YS02001647YS02001649    1.00   0.00  0.07  0.00  0.93  0.00  0.00  0.00  0.01  0.00
  YS02006553YS02006556    1.00   0.02  0.00  0.00  0.98  0.00  0.00  0.00  0.03  0.00
  YS02006556YS02006558    1.00   0.00  0.01  0.00  0.99  0.00  0.00  0.00  0.00  0.00
  YSB6556YSB1171          1.00   0.02  0.02  0.00  0.96  0.00  0.00  0.00  0.00  0.00
  YS02001907YS02006553    1.00   0.00  0.02  0.00  0.98  0.00  0.00  0.00  0.00  0.00
  YS02006558YS02006561    1.00   0.07  0.00  0.00  0.00  0.93  0.00  0.00  0.72  0.00
  YS02001633YS02163601    1.00   0.00  0.01  0.00  0.99  0.00  0.00  0.00  0.20  0.00
  YS02001644YS02001647    1.00   0.00  0.07  0.00  0.93  0.00  0.00  0.00  0.00  0.00
  YS02001745YS02001748    1.00   0.00  0.00  0.00  0.81  0.05  0.00  0.13  0.66  0.00
  YS02001748YS02001751    1.00   0.00  0.00  0.00  0.98  0.02  0.00  0.00  0.25  0.00
  YS02001751YS02001754    1.00   0.00  0.00  0.00  0.93  0.00  0.00  0.07  0.02  0.00
  YS02001754YS02001757    1.00   0.00  0.00  0.00  0.99  0.01  0.00  0.00  0.26  0.00
  YS02001882YS02001884    1.00   0.06  0.00  0.00  0.94  0.00  0.00  0.00  0.00  0.00
  YS02001884YS02001887    1.00   0.03  0.01  0.00  0.96  0.00  0.00  0.00  0.00  0.00
  YS02001890YS02001895    1.00   0.00  0.06  0.00  0.94  0.00  0.00  0.00  0.00  0.00
  YS02001895YS02001898    1.00   0.06  0.00  0.00  0.93  0.00  0.01  0.00  0.00  0.00
  YS02001898YS02001901    1.00   0.06  0.00  0.00  0.94  0.00  0.00  0.00  0.02  0.00
  YS02001901YS02001904    1.00   0.06  0.00  0.00  0.94  0.00  0.00  0.00  0.00  0.00
  YS02001904YS02001907    1.00   0.00  0.05  0.00  0.94  0.00  0.00  0.00  0.00  0.00
  YS02001887YS02001890    1.00   0.00  0.00  0.00  0.98  0.00  0.02  0.00  0.00  0.00
  YS02001652YS02001649    1.00   0.00  0.00  0.00  1.00  0.00  0.00  0.00  0.26  0.00
  YS02001655YS02001652    1.00   0.00  0.00  0.00  0.93  0.00  0.00  0.07  0.02  0.00
  YS02001658YS02001655    1.00   0.00  0.05  0.00  0.92  0.03  0.00  0.00  0.13  0.00
  YS02001661YS02001658    1.00   0.05  0.00  0.00  0.83  0.12  0.00  0.00  0.72  0.00
  YS02001664YS02001661    1.00   0.04  0.00  0.00  0.78  0.18  0.00  0.00  0.86  0.00
  YSB1154YSB6556          1.00   0.04  0.00  0.00  0.96  0.00  0.00  0.00  0.02  0.00
  YSB1174YSB1171          1.00   0.03  0.01  0.00  0.97  0.00  0.00  0.00  0.00  0.00
  YSB1171HS02004479       1.00   0.02  0.00  0.00  0.97  0.00  0.00  0.00  0.13  0.00
  HS02004881HS02006253    1.00   0.03  0.00  0.00  0.71  0.01  0.00  0.25  0.50  0.00
  YS02001793JiankangQianchi    1.00   0.00  0.00  0.00  0.04  0.95  0.00  0.00  0.06  0.00
  YS02001757CaochengTiaoxuchi    1.00   0.00  0.08  0.00  0.92  0.00  0.00  0.00  0.00  0.00
  WSF200WS02003060        1.00   0.00  0.06  0.00  0.52  0.41  0.00  0.00  0.38  0.00
  1                       1.00   0.00  0.00  0.00  0.00  1.00  0.00  0.00  0.38  0.00
  2                       1.00   0.85  0.00  0.00  0.00  0.15  0.00  0.00  0.04  0.00
  3                       1.00   0.22  0.00  0.00  0.00  0.78  0.00  0.00  0.08  0.00
  4                       1.00   1.00  0.00  0.00  0.00  0.00  0.00  0.00  0.00  0.00
  
  
  *************************
  Conduit Surcharge Summary
  *************************
  
  ----------------------------------------------------------------------------
                                                           Hours        Hours 
                         --------- Hours Full --------   Above Full   Capacity
  Conduit                Both Ends  Upstream  Dnstream   Normal Flow   Limited
  ----------------------------------------------------------------------------
  WS02006229WS02006228        1.13      1.17      1.13      3.12         1.13
  WS02006256WS02006235        5.59      5.59      7.16      3.86         0.01
  WS02006252WS02006251        0.25      0.25      0.70      0.58         0.01
  WS02006251WS02006249        0.01      0.01      0.01      0.27         0.01
  WS02006249WS02006248        0.01      0.01      0.01      3.49         0.01
  WS02006247WS02006245        0.01      0.01      0.01      3.97         0.01
  WS02006243WS02006242        0.01      0.01      0.33      0.01         0.01
  WS02006242WS02006240        0.01      0.01      0.51      0.77         0.01
  WS02006240WS02006239        0.09      0.09      0.15      0.01         0.01
  WS02006239WS02006238        0.46      0.46      0.53      0.01         0.01
  WS02006238WS02006235        0.47      0.47      0.69      0.01         0.01
  WS02006235WS02006234        0.01      0.01      0.38      5.62         0.01
  WS02006234WS02006232        0.16      0.16      1.01      0.01         0.01
  WS02006232WS02006231        0.01      0.01      1.01      0.01         0.01
  WS02006231WS02006230        0.01      0.01      0.01      5.58         0.01
  WS02006230WS02006229        1.40      2.36      1.40      5.66         1.40
  WS02006228WS02006109        1.15      1.30      1.15      4.25         1.15
  WS02006111WS02006112        0.01      0.01      3.37      0.01         0.01
  WS02006110WS02006113        0.01      0.01      1.23      0.01         0.01
  WS02006109WS02006110        0.01      0.01      1.30      0.01         0.01
  WS02004404WS02004405        0.01      0.01      0.01      5.59         0.01
  WS02003072WS02003073        0.01      0.01      0.01      3.92         0.01
  YS02001759YS02001757        4.43      4.43      5.23      0.01         0.01
  YS02001762YS02001759        3.85      3.85      4.43      0.01         0.01
  YS02001765YS02001762        2.59      2.59      3.85      0.01         0.01
  YS02001770YS02001767        0.80      0.80      0.93      0.01         0.01
  YS02001774YS02001770        0.01      0.01      3.19      0.01         0.01
  YS02001779YS02001774        0.01      0.01      3.19      0.01         0.01
  YS02001649YS02001757        3.95      3.95      5.23      0.01         0.01
  YS02001767YS02001765        0.93      0.93      2.59      0.01         0.01
  YS02001629YS02163301        0.01      0.01      0.21      0.01         0.01
  YS02163301YS02001633        0.21      0.21      2.56      0.01         0.01
  YS02163601YS02164001        2.34      2.34      3.90      0.01         0.01
  YS02164001YS02001641        2.34      2.34      2.91      0.01         0.01
  YS02001641YS02001644        2.89      2.91      3.04      0.01         0.17
  YS02001647YS02001649        0.01      0.01      3.95      0.01         0.01
  YS02001633YS02163601        1.48      1.48      3.90      0.01         0.01
  YS02001644YS02001647        0.01      0.01      3.04      0.01         0.01
  YS02001754YS02001757        0.01      0.01      5.23      0.01         0.01
  YS02001652YS02001649        0.01      0.01      3.95      0.01         0.01
  YS02001793JiankangQianchi        0.01      0.01      0.04      0.01         0.01
  YS02001757CaochengTiaoxuchi        0.01      0.01      5.23      0.01         0.01
  3                           0.01      0.01      0.01      0.01         0.01
  
  
  ***************
  Pumping Summary
  ***************
  
  ---------------------------------------------------------------------------------------------------------
                                                  Min       Avg       Max     Total     Power    % Time Off
                        Percent   Number of      Flow      Flow      Flow    Volume     Usage    Pump Curve
  Pump                 Utilized   Start-Ups       LPS       LPS       LPS  10^6 ltr     Kw-hr    Low   High
  ---------------------------------------------------------------------------------------------------------
  CC-Pump-1               40.58           6      0.00    130.41    200.00     1.423      5.06    0.0   31.8
  CC-Pump-2               53.35           4      0.00    131.95    200.00     1.920      6.68    0.0   28.2
  JK-Pump-1               85.11           7      0.00    114.63    300.00     2.127     41.29    0.0    0.0
  JK-Pump-2               85.10           5      0.00    113.89    300.00     1.969     38.17    0.0    0.0
  XR-Pump-1               74.45           5      0.00     64.67     95.00     1.339      8.35    0.0    0.0
  XR-Pump-2               89.36           7      0.00     69.29     95.00     1.739     11.08    0.0    0.0
  XR-Pump-3               61.68           7      0.00     71.58     95.00     1.197      7.44    0.0    0.0
  XR-Pump-4               65.94           9      0.00     62.05     95.00     1.140      6.41    0.0    0.0
  

  Analysis begun on:  Tue Dec 21 12:15:15 2021
  Analysis ended on:  Tue Dec 21 12:15:18 2021
  Total elapsed time: 00:00:03