
  EPA STORM WATER MANAGEMENT MODEL - VERSION 5.1 (Build 5.3.0.dev0)
  --------------------------------------------------------------

  WARNING 04: minimum elevation drop used for Conduit WS02004404WS02004405
  WARNING 03: negative offset ignored for Link YS02001904YS02001907
  
  *********************************************************
  NOTE: The summary statistics displayed in this report are
  based on results found at every computational time step,  
  not just on results from each reporting time step.
  *********************************************************
  
  ****************
  Analysis Options
  ****************
  Flow Units ............... LPS
  Process Models:
    Rainfall/Runoff ........ YES
    RDII ................... NO
    Snowmelt ............... NO
    Groundwater ............ NO
    Flow Routing ........... YES
    Ponding Allowed ........ NO
    Water Quality .......... NO
  Infiltration Method ...... HORTON
  Flow Routing Method ...... DYNWAVE
  Surcharge Method ......... EXTRAN
  Starting Date ............ 08/28/2015 08:00:00
  Ending Date .............. 08/28/2015 15:50:00
  Antecedent Dry Days ...... 8.0
  Report Time Step ......... 00:01:00
  Wet Time Step ............ 00:01:00
  Dry Time Step ............ 00:01:00
  Routing Time Step ........ 5.00 sec
  Variable Time Step ....... YES
  Maximum Trials ........... 8
  Number of Threads ........ 4
  Head Tolerance ........... 0.001500 m
  
  
  **************************        Volume         Depth
  Runoff Quantity Continuity     hectare-m            mm
  **************************     ---------       -------
  Total Precipitation ......         3.679         8.055
  Evaporation Loss .........         0.000         0.000
  Infiltration Loss ........         0.936         2.049
  Surface Runoff ...........         1.790         3.918
  Final Storage ............         0.955         2.090
  Continuity Error (%) .....        -0.018
  
  
  **************************        Volume        Volume
  Flow Routing Continuity        hectare-m      10^6 ltr
  **************************     ---------     ---------
  Dry Weather Inflow .......         0.616         6.165
  Wet Weather Inflow .......         1.789        17.887
  Groundwater Inflow .......         0.000         0.000
  RDII Inflow ..............         0.000         0.000
  External Inflow ..........         0.102         1.024
  External Outflow .........         1.701        17.014
  Flooding Loss ............         0.369         3.694
  Evaporation Loss .........         0.000         0.000
  Exfiltration Loss ........         0.000         0.000
  Initial Stored Volume ....         0.076         0.761
  Final Stored Volume ......         0.587         5.866
  Continuity Error (%) .....        -2.860
  
  
  *************************
  Highest Continuity Errors
  *************************
  Node YS02001774 (33.60%)
  Node HS02004842 (22.75%)
  Node YS02001884 (13.36%)
  Node JK-storage (-13.03%)
  Node YSB1171 (4.89%)
  
  
  ***************************
  Time-Step Critical Elements
  ***************************
  Link WS02006252WS02006251 (52.74%)
  Link 3 (37.06%)
  Link WS02006238WS02006235 (3.87%)
  Link WS02006280WS02006229 (1.79%)
  
  
  ********************************
  Highest Flow Instability Indexes
  ********************************
  Link WS02006113WS02006111 (37)
  Link YS02001779YS02001774 (30)
  Link YS02001774YS02001770 (30)
  Link YS02001765YS02001762 (24)
  Link YS02001619YS02001622 (23)
  
  
  *************************
  Routing Time Step Summary
  *************************
  Minimum Time Step           :     0.50 sec
  Average Time Step           :     0.83 sec
  Maximum Time Step           :     5.00 sec
  Percent in Steady State     :    -0.00
  Average Iterations per Step :     4.37
  Percent Not Converging      :    23.98
  
  
  ***************************
  Subcatchment Runoff Summary
  ***************************
  
  ------------------------------------------------------------------------------------------------------------------------------
                            Total      Total      Total      Total     Imperv       Perv      Total       Total     Peak  Runoff
                           Precip      Runon       Evap      Infil     Runoff     Runoff     Runoff      Runoff   Runoff   Coeff
  Subcatchment                 mm         mm         mm         mm         mm         mm         mm    10^6 ltr      LPS
  ------------------------------------------------------------------------------------------------------------------------------
  sub0                       8.06       0.00       0.00       0.56       6.23       0.00       6.23        0.01     2.15   0.773
  sub1                       8.06       0.00       0.00       0.89       5.91       0.00       5.91        0.04    11.80   0.734
  sub2                       8.06       0.00       0.00       2.98       4.17       0.00       4.17        0.04    10.54   0.517
  sub3                       8.06       0.00       0.00       2.98       4.13       0.00       4.13        0.09    21.95   0.513
  sub4                       8.06       0.00       0.00       0.89       5.77       0.00       5.77        0.12    24.90   0.716
  sub5                       8.06       0.00       0.00       0.56       6.18       0.00       6.18        0.07    20.99   0.767
  sub7                       8.06       0.00       0.00       0.72       6.08       0.00       6.08        0.02     7.27   0.754
  sub8                       8.06       0.00       0.00       0.72       6.07       0.00       6.07        0.04    12.92   0.753
  sub9                       8.06       0.00       0.00       0.72       6.06       0.00       6.06        0.03     9.59   0.753
  sub10                      8.06       0.00       0.00       0.64       6.12       0.00       6.12        0.07    20.88   0.760
  sub11                      8.06       0.00       0.00       0.64       6.14       0.00       6.14        0.07    24.25   0.762
  sub12                      8.06       0.00       0.00       1.05       5.82       0.00       5.82        0.05    20.11   0.722
  sub14                      8.06       0.00       0.00       0.72       6.06       0.00       6.06        0.06    18.77   0.753
  sub15                      8.06       0.00       0.00       2.42       4.66       0.00       4.66        0.08    25.52   0.578
  sub16                      8.06       0.00       0.00       2.66       4.48       0.00       4.48        0.05    17.80   0.556
  sub17                      8.06       0.00       0.00       2.58       4.54       0.00       4.54        0.04    14.42   0.564
  sub22                      8.06       0.00       0.00       3.46       3.80       0.00       3.80        0.24    82.82   0.472
  sub23                      8.06       0.00       0.00       2.98       4.20       0.00       4.20        0.20    70.38   0.522
  sub60                      8.06       0.00       0.00       0.97       4.43       0.00       4.43        1.34   135.38   0.550
  sub61                      8.06       0.00       0.00       1.37       4.63       0.00       4.63        1.43   167.06   0.575
  sub62                      8.06       0.00       0.00       0.64       5.00       0.00       5.00        1.54   171.55   0.620
  sub63                      8.06       0.00       0.00       2.34       4.09       0.00       4.09        1.24   154.92   0.508
  sub64                      8.06       0.00       0.00       1.21       4.24       0.00       4.24        1.29   128.75   0.527
  sub65                      8.06       0.00       0.00       1.05       4.30       0.00       4.30        1.32   130.82   0.534
  sub66                      8.06       0.00       0.00       2.34       3.67       0.00       3.67        1.13   117.38   0.456
  sub67                      8.06       0.00       0.00       0.64       5.39       0.00       5.39        1.66   216.94   0.669
  sub68                      8.06       0.00       0.00       1.13       4.90       0.00       4.90        1.51   183.95   0.608
  sub69                      8.06       0.00       0.00       1.21       5.19       0.00       5.19        1.21   179.57   0.644
  sub70                      8.06       5.30       0.00       4.54       6.64       0.00       6.64        1.52   155.14   0.497
  sub71                      8.06       0.00       0.00       0.64       4.82       0.00       4.82        1.14   120.44   0.598
  sub72                      8.06       0.00       0.00       0.56       3.59       0.00       3.59        0.73    59.05   0.445
  sub73                      8.06       6.46       0.00       4.94       6.98       0.00       6.98        1.64   136.02   0.481
  sub74                      8.06       0.00       0.00       6.04       1.56       0.00       1.56        0.62    99.54   0.193
  
  
  ******************
  Node Depth Summary
  ******************
  
  ---------------------------------------------------------------------------------
                                 Average  Maximum  Maximum  Time of Max    Reported
                                   Depth    Depth      HGL   Occurrence   Max Depth
  Node                 Type       Meters   Meters   Meters  days hr:min      Meters
  ---------------------------------------------------------------------------------
  WS02001211           JUNCTION     0.61     0.78     5.62     0  03:00        0.78
  WS02001212           JUNCTION     0.35     0.50     5.56     0  03:01        0.50
  WS02001213           JUNCTION     0.59     0.75     5.51     0  03:01        0.75
  WS02003069           JUNCTION     0.42     0.57     5.15     0  03:02        0.57
  WS02003072           JUNCTION     0.49     0.63     5.00     0  03:03        0.63
  WS02003073           JUNCTION     0.29     0.38     4.45     0  03:03        0.38
  WS02003060           JUNCTION     0.38     0.50     5.43     0  03:02        0.50
  WS02003066           JUNCTION     0.24     0.31     5.87     0  02:27        0.31
  WS02003059           JUNCTION     0.65     0.80     5.49     0  03:02        0.80
  WS02003067           JUNCTION     0.58     0.73     6.05     0  02:26        0.73
  WS02004401           JUNCTION     0.68     0.92     6.92     0  02:23        0.92
  WS02004402           JUNCTION     0.71     0.94     6.90     0  02:23        0.94
  WS02004403           JUNCTION     0.73     0.95     6.88     0  02:23        0.95
  WS02004404           JUNCTION     0.81     1.02     6.87     0  02:23        1.02
  WS02004406           JUNCTION     0.81     1.00     6.83     0  02:23        1.00
  WS02004409           JUNCTION     0.50     0.72     6.49     0  02:26        0.72
  WS02004410           JUNCTION     0.52     0.73     6.45     0  02:26        0.73
  WS02004411           JUNCTION     0.53     0.73     6.41     0  02:27        0.73
  WS02004412           JUNCTION     0.55     0.74     6.38     0  02:27        0.74
  WS02004413           JUNCTION     0.71     0.89     6.36     0  02:27        0.89
  WS02004405           JUNCTION     0.80     1.01     6.86     0  02:23        1.01
  WS02006109           JUNCTION     0.77     1.09     7.71     0  02:17        1.06
  WS02006110           JUNCTION     0.76     1.02     7.61     0  02:17        0.99
  WS02006111           JUNCTION     0.22     0.31     7.02     0  02:20        0.31
  WS02006112           JUNCTION     0.85     1.19     7.07     0  02:26        1.16
  WS02006113           JUNCTION     0.35     0.49     7.39     0  02:19        0.49
  WS02006115           JUNCTION     0.57     0.83     6.97     0  02:23        0.83
  WS02006116           JUNCTION     0.66     0.90     6.94     0  02:24        0.90
  WS02006230           JUNCTION     0.75     1.23     7.98     0  02:17        1.14
  WS02006231           JUNCTION     0.50     0.98     8.10     0  02:17        0.80
  WS02006232           JUNCTION     0.64     1.02     8.06     0  02:17        0.92
  WS02006234           JUNCTION     0.56     0.97     8.13     0  02:18        0.84
  WS02006235           JUNCTION     0.59     0.98     8.14     0  02:18        0.86
  WS02006238           JUNCTION     0.62     1.00     8.14     0  02:18        0.89
  WS02006240           JUNCTION     0.52     1.23     8.52     0  02:17        0.79
  WS02006242           JUNCTION     0.58     1.49     8.76     0  02:17        0.83
  WS02006243           JUNCTION     0.46     0.71     8.13     0  02:19        0.70
  WS02006245           JUNCTION     0.44     0.67     8.15     0  02:50        0.67
  WS02006247           JUNCTION     0.46     0.67     8.17     0  02:50        0.67
  WS02006248           JUNCTION     0.40     0.61     8.20     0  02:50        0.61
  WS02006249           JUNCTION     0.43     0.62     8.22     0  02:50        0.62
  WS02006239           JUNCTION     0.58     1.16     8.37     0  02:17        0.85
  WS02006251           JUNCTION     0.42     0.65     8.32     0  02:50        0.65
  WS02006252           JUNCTION     0.37     0.59     8.84     0  07:00        0.58
  WS02006253           JUNCTION     0.45     0.68     8.32     0  02:50        0.67
  WS02006256           JUNCTION     1.02     1.21     8.15     0  02:20        1.21
  WS02004138           JUNCTION     0.13     0.19     7.44     0  03:00        0.19
  WS02004407           JUNCTION     0.23     0.32     6.63     0  02:24        0.32
  WS02006228           JUNCTION     0.77     1.15     7.80     0  02:17        1.12
  WS02006229           JUNCTION     0.75     1.16     7.85     0  02:17        1.13
  WS02006280           JUNCTION     0.06     0.18     8.45     0  02:15        0.18
  WS02006284           JUNCTION     0.36     0.53     8.93     0  02:14        0.53
  WS02006287           JUNCTION     0.09     0.27     9.22     0  02:14        0.27
  WSF200               JUNCTION     0.22     0.32     5.56     0  02:28        0.32
  HS02004901           JUNCTION     0.12     0.27    10.10     0  02:12        0.27
  HS02004881           JUNCTION     0.01     0.03     9.06     0  02:15        0.03
  HS02004876           JUNCTION     0.04     0.11     9.14     0  02:08        0.11
  HS02004870           JUNCTION     0.01     0.06     9.34     0  02:15        0.06
  HS02004862           JUNCTION     0.02     0.06     9.45     0  02:16        0.06
  HS02004856           JUNCTION     0.08     0.12     9.54     0  02:15        0.12
  HS02004852           JUNCTION     0.01     0.04     9.55     0  02:16        0.04
  HS02004848           JUNCTION     0.01     0.04     9.64     0  02:15        0.04
  HS02004842           JUNCTION     0.33     0.37     9.64     0  02:15        0.37
  HS02004837           JUNCTION     0.03     0.06     9.64     0  02:15        0.06
  HS02004830           JUNCTION     0.04     0.07     9.54     0  02:15        0.07
  HS02004824           JUNCTION     0.02     0.05     9.45     0  02:18        0.05
  HS02004817           JUNCTION     0.43     0.57     9.42     0  02:15        0.57
  HS02004807           JUNCTION     0.12     0.25     9.42     0  02:15        0.25
  HS02004802           JUNCTION     0.16     0.28     9.41     0  02:15        0.28
  HS02004799           JUNCTION     0.11     0.32     9.53     0  02:13        0.32
  HS02004792           JUNCTION     0.03     0.13     9.65     0  02:12        0.13
  HS02004788           JUNCTION     0.02     0.10    10.00     0  02:13        0.10
  HS02004785           JUNCTION     0.04     0.17    10.07     0  02:12        0.17
  HS02004777           JUNCTION     0.14     0.29    10.09     0  02:12        0.29
  HS02004770           JUNCTION     0.11     0.26    10.10     0  02:12        0.26
  HS02004480           JUNCTION     0.07     0.25     9.49     0  02:13        0.25
  HS02004479           JUNCTION     0.11     0.29     9.49     0  02:13        0.29
  HS02004478           JUNCTION     0.06     0.17     9.40     0  02:14        0.17
  YS02001745           JUNCTION     0.59     0.85     8.37     0  04:43        0.85
  YS02001748           JUNCTION     0.98     1.29     8.37     0  04:44        1.29
  YS02001751           JUNCTION     1.16     1.95     8.83     0  03:04        1.49
  YS02001754           JUNCTION     1.42     1.97     8.57     0  03:04        1.77
  YS02001762           JUNCTION     1.61     2.00     8.40     0  04:13        1.99
  YS02001765           JUNCTION     1.57     1.96     8.41     0  04:13        1.93
  YS02001767           JUNCTION     1.53     1.91     8.40     0  04:13        1.89
  YS02001770           JUNCTION     1.53     1.89     8.39     0  04:13        1.88
  YS02001774           JUNCTION     1.59     1.96     8.38     0  04:12        1.95
  YS02001779           JUNCTION     1.34     1.68     8.37     0  04:05        1.68
  YS02001882           JUNCTION     0.35     0.62     7.33     0  02:41        0.61
  YS02001884           JUNCTION     0.45     0.71     7.33     0  02:50        0.71
  YS02001759           JUNCTION     1.65     2.04     8.41     0  04:13        2.01
  YS02001887           JUNCTION     0.52     0.79     7.33     0  02:42        0.79
  YS02001890           JUNCTION     0.56     0.82     7.33     0  02:42        0.82
  YS02001898           JUNCTION     0.32     0.58     7.31     0  02:43        0.57
  YS02001901           JUNCTION     0.44     0.70     7.31     0  02:43        0.70
  YS02001904           JUNCTION     0.42     0.68     7.31     0  02:40        0.68
  YS02001907           JUNCTION     0.75     1.05     7.34     0  02:50        1.04
  YS02001910           JUNCTION     0.54     0.81     7.31     0  03:03        0.80
  YS02001915           JUNCTION     0.34     0.59     7.31     0  03:01        0.59
  YS02001918           JUNCTION     0.11     0.24     7.31     0  02:49        0.24
  YS02001619           JUNCTION     1.13     1.61     8.54     0  03:23        1.47
  YS02001629           JUNCTION     1.48     1.85     8.40     0  04:09        1.84
  YS02001641           JUNCTION     1.58     1.93     8.37     0  06:01        1.93
  YS02001644           JUNCTION     1.59     1.92     8.35     0  03:59        1.92
  YS02001652           JUNCTION     1.43     2.09     8.68     0  02:59        1.82
  YS02001655           JUNCTION     1.19     2.20     9.05     0  02:53        1.60
  YS02001920           JUNCTION     0.21     0.31     7.32     0  02:50        0.31
  YS02001923           JUNCTION     0.08     0.11     7.37     0  03:01        0.11
  YS02001926           JUNCTION     0.17     0.22     7.67     0  03:01        0.22
  YS02001929           JUNCTION     0.08     0.11     7.81     0  03:01        0.11
  YS02001658           JUNCTION     0.92     2.30     9.44     0  03:18        1.35
  YS02001661           JUNCTION     0.70     1.28     8.68     0  04:13        1.14
  YS02001664           JUNCTION     0.28     0.56     8.49     0  04:13        0.56
  YS02001622           JUNCTION     1.15     1.62     8.52     0  03:25        1.49
  YS02001633           JUNCTION     1.57     1.94     8.40     0  04:09        1.93
  YS02001649           JUNCTION     1.62     2.05     8.44     0  04:13        2.00
  YS02001757           JUNCTION     1.75     2.15     8.41     0  04:13        2.12
  YS02001895           JUNCTION     0.32     0.57     7.32     0  02:43        0.57
  YS02001625           JUNCTION     1.43     1.78     8.38     0  03:59        1.78
  YS02163301           JUNCTION     1.51     1.88     8.40     0  04:09        1.87
  YS02163601           JUNCTION     1.62     1.99     8.39     0  04:08        1.98
  YS02164001           JUNCTION     1.56     1.92     8.38     0  04:08        1.91
  YS02001647           JUNCTION     1.42     1.79     8.40     0  04:13        1.76
  YSB1154              JUNCTION     0.25     0.44     9.50     0  02:13        0.44
  YSB6556              JUNCTION     0.14     0.33     9.50     0  02:13        0.33
  YSB1174              JUNCTION     0.20     0.39     9.50     0  02:13        0.39
  YSB1171              JUNCTION     0.40     0.59     9.50     0  02:13        0.59
  YS02006553           JUNCTION     0.76     1.04     7.33     0  02:51        1.03
  YS02006561           JUNCTION     0.18     0.34     7.00     0  02:49        0.34
  YS02006556           JUNCTION     0.73     1.00     7.31     0  02:48        0.99
  YS02006558           JUNCTION     0.77     1.04     7.31     0  02:48        1.04
  YS02001783           JUNCTION     0.34     0.77     6.91     0  03:10        0.76
  YS02001784           JUNCTION     0.37     0.81     6.87     0  03:11        0.80
  YS02001786           JUNCTION     0.33     0.79     6.82     0  03:11        0.78
  YS02001788           JUNCTION     0.28     0.80     6.77     0  03:11        0.77
  YS02001790           JUNCTION     0.36     1.58     7.23     0  03:07        1.06
  YS02001791           JUNCTION     0.32     1.46     6.93     0  03:07        1.18
  YS02001793           JUNCTION     0.41     2.45     7.29     0  03:03        1.78
  WS02004139           JUNCTION     0.55     0.73     5.64     0  03:00        0.72
  WSC                  OUTFALL      0.29     0.38     1.05     0  03:04        0.38
  3                    OUTFALL      0.09     0.21     6.21     0  02:20        0.21
  4                    OUTFALL      0.02     0.12     7.12     0  02:50        0.12
  5                    OUTFALL      0.00     0.00     5.00     0  00:00        0.00
  JK-storage           STORAGE      1.75     5.80     6.60     0  03:09        5.80
  CC-storage           STORAGE      0.98     1.37     8.37     0  04:41        1.37
  XR-storage           STORAGE      7.41     7.72     5.72     0  02:27        7.72
  
  
  *******************
  Node Inflow Summary
  *******************
  
  -------------------------------------------------------------------------------------------------
                                  Maximum  Maximum                  Lateral       Total        Flow
                                  Lateral    Total  Time of Max      Inflow      Inflow     Balance
                                   Inflow   Inflow   Occurrence      Volume      Volume       Error
  Node                 Type           LPS      LPS  days hr:min    10^6 ltr    10^6 ltr     Percent
  -------------------------------------------------------------------------------------------------
  WS02001211           JUNCTION      7.35   381.20     0  03:00       0.207        5.51       0.535
  WS02001212           JUNCTION      0.00   377.10     0  03:01           0        5.48       0.296
  WS02001213           JUNCTION      0.00   375.67     0  03:01           0        5.46       0.399
  WS02003069           JUNCTION      0.32   900.65     0  03:02     0.00902        13.3       0.206
  WS02003072           JUNCTION      0.00   900.15     0  03:03           0        13.2       0.259
  WS02003073           JUNCTION      1.82   901.65     0  03:03      0.0514        13.2       0.288
  WS02003060           JUNCTION     16.53   900.69     0  03:02       0.466        13.3       0.198
  WS02003066           JUNCTION      0.00   610.72     0  02:27           0        7.41       0.060
  WS02003059           JUNCTION      0.00   375.64     0  03:01           0        5.44       0.618
  WS02003067           JUNCTION      0.00   610.69     0  02:27           0        7.42       0.127
  WS02004401           JUNCTION      0.00   619.56     0  02:23           0        7.65       0.280
  WS02004402           JUNCTION      0.00   618.66     0  02:23           0        7.63       0.264
  WS02004403           JUNCTION      0.00   617.65     0  02:23           0        7.61       0.241
  WS02004404           JUNCTION      0.16   619.42     0  02:23     0.00457         7.6       0.181
  WS02004406           JUNCTION      0.00   618.31     0  02:23           0        7.56       0.443
  WS02004409           JUNCTION      0.00   617.71     0  02:24           0        7.52       0.219
  WS02004410           JUNCTION      0.00   613.85     0  02:25           0        7.51       0.247
  WS02004411           JUNCTION      0.00   611.76     0  02:25           0        7.49       0.254
  WS02004412           JUNCTION      0.00   610.87     0  02:27           0        7.47       0.274
  WS02004413           JUNCTION      0.00   610.77     0  02:27           0        7.45       0.406
  WS02004405           JUNCTION      0.04   619.97     0  02:23     0.00107        7.58       0.272
  WS02006109           JUNCTION      1.23   631.50     0  02:17      0.0347        7.74       0.264
  WS02006110           JUNCTION      0.00   631.46     0  02:17           0        7.72       0.267
  WS02006111           JUNCTION      0.00   651.59     0  02:20           0        7.69       0.057
  WS02006112           JUNCTION     14.42   642.28     0  02:20      0.0389        7.72       0.388
  WS02006113           JUNCTION      0.00   630.84     0  02:18           0        7.69       0.124
  WS02006115           JUNCTION      0.00   645.43     0  02:20           0        7.69       0.270
  WS02006116           JUNCTION      0.00   624.45     0  02:21           0        7.67       0.237
  WS02006230           JUNCTION     10.28   400.06     0  06:02        0.29         6.5       0.167
  WS02006231           JUNCTION      0.00   392.17     0  06:01           0        6.22       0.177
  WS02006232           JUNCTION      0.00   392.25     0  06:02           0        6.23       0.251
  WS02006234           JUNCTION      0.00   394.26     0  06:01           0        6.24       0.126
  WS02006235           JUNCTION      0.00   394.09     0  06:01           0        6.29       0.166
  WS02006238           JUNCTION      0.00   344.99     0  07:00           0        4.55       0.166
  WS02006240           JUNCTION      0.00   339.70     0  07:00           0        4.54       0.253
  WS02006242           JUNCTION      0.00   337.08     0  07:00           0        4.54       0.313
  WS02006243           JUNCTION      0.00   332.00     0  06:21           0        4.53      -0.062
  WS02006245           JUNCTION      0.00   338.40     0  06:21           0        4.54       0.257
  WS02006247           JUNCTION      0.00   344.35     0  06:20           0        4.55       0.151
  WS02006248           JUNCTION      0.00   349.87     0  06:20           0        4.55       0.092
  WS02006249           JUNCTION      0.00   426.17     0  02:50           0         4.9       0.204
  WS02006239           JUNCTION      0.00   344.35     0  07:00           0        4.54       0.193
  WS02006251           JUNCTION      0.08   428.12     0  02:50     0.00217        4.94       0.181
  WS02006252           JUNCTION      0.00   400.00     0  06:50           0        4.69       0.010
  WS02006253           JUNCTION      2.15    66.55     0  02:14     0.00504        0.25       1.475
  WS02006256           JUNCTION      0.00   600.00     0  02:20           0        5.23       0.048
  WS02004138           JUNCTION      0.00   379.99     0  04:10           0        5.33       0.085
  WS02004407           JUNCTION      0.00   618.03     0  02:24           0        7.53       0.098
  WS02006228           JUNCTION      0.00   630.18     0  02:17           0        7.72       0.194
  WS02006229           JUNCTION      0.00   636.85     0  02:19           0        7.73       0.186
  WS02006280           JUNCTION      0.00   330.25     0  02:15           0        1.24       0.005
  WS02006284           JUNCTION      0.10   330.22     0  02:14      0.0027        1.25       0.092
  WS02006287           JUNCTION      0.00   330.07     0  02:14           0        1.24       0.058
  WSF200               JUNCTION      0.00   610.73     0  02:27           0         7.4       0.058
  HS02004901           JUNCTION     17.80    17.80     0  02:08      0.0468       0.047       3.884
  HS02004881           JUNCTION      7.27    64.88     0  02:15      0.0205       0.219       0.168
  HS02004876           JUNCTION     11.80    58.23     0  02:15      0.0393       0.199       0.271
  HS02004870           JUNCTION     12.92    46.63     0  02:14      0.0387       0.159       0.067
  HS02004862           JUNCTION     10.74    34.47     0  02:15      0.0445       0.121       0.141
  HS02004856           JUNCTION      9.59    23.80     0  02:14      0.0291      0.0779       1.880
  HS02004852           JUNCTION      0.00    14.76     0  02:15           0      0.0488       0.109
  HS02004848           JUNCTION     21.95    21.95     0  02:18      0.0929      0.0929       0.047
  HS02004842           JUNCTION      0.00     7.98     0  02:27           0      0.0572      29.454
  HS02004837           JUNCTION     27.23    33.75     0  02:14       0.247       0.291       0.279
  HS02004830           JUNCTION      0.15    33.88     0  02:15     0.00423       0.281       0.441
  HS02004824           JUNCTION     24.95    58.52     0  02:18       0.122       0.401       0.134
  HS02004817           JUNCTION      0.60    59.11     0  02:18      0.0169       0.418       4.156
  HS02004807           JUNCTION     24.25    81.36     0  02:16      0.0712       0.472       0.903
  HS02004802           JUNCTION      0.00    81.95     0  02:17           0       0.468       0.874
  HS02004799           JUNCTION     18.77   212.19     0  02:12      0.0577       0.674       0.342
  HS02004792           JUNCTION     83.10   193.66     0  02:12       0.248       0.617       0.065
  HS02004788           JUNCTION     27.19   112.53     0  02:12       0.127        0.37       0.104
  HS02004785           JUNCTION      0.15    85.61     0  02:12     0.00423       0.245       0.199
  HS02004777           JUNCTION      0.03    85.92     0  02:11    0.000846       0.245       2.162
  HS02004770           JUNCTION     70.38    87.06     0  02:10         0.2       0.246       1.275
  HS02004480           JUNCTION      0.00   250.51     0  02:13           0       0.792       0.098
  HS02004479           JUNCTION      0.00    39.06     0  02:14           0        0.13       0.565
  HS02004478           JUNCTION      0.00   330.05     0  02:14           0        1.24       0.048
  YS02001745           JUNCTION    135.38   326.33     0  03:24        1.34        1.37       0.627
  YS02001748           JUNCTION      0.04   422.36     0  03:24     0.00127        1.37       1.588
  YS02001751           JUNCTION      0.01   360.18     0  02:57     0.00031        1.32       1.728
  YS02001754           JUNCTION      0.26   223.34     0  02:34     0.00733         1.3       1.889
  YS02001762           JUNCTION      0.00   194.18     0  02:55           0        1.47       1.432
  YS02001765           JUNCTION      0.00   193.30     0  02:28           0        1.47       1.674
  YS02001767           JUNCTION      0.54   196.72     0  02:28      0.0151        1.49       2.453
  YS02001770           JUNCTION    171.71   204.00     0  02:24        1.54        1.56       2.020
  YS02001774           JUNCTION      0.00    63.58     0  02:23           0      0.0742      50.602
  YS02001779           JUNCTION      0.01    60.12     0  02:23    0.000141      0.0329      77.061
  YS02001882           JUNCTION      0.00    13.60     0  02:42           0      0.0124      18.201
  YS02001884           JUNCTION      0.00    18.83     0  02:42           0      0.0402      15.423
  YS02001759           JUNCTION    167.10   362.27     0  02:55        1.43        2.86       0.798
  YS02001887           JUNCTION    217.39   239.78     0  02:42        1.68         1.7       0.454
  YS02001890           JUNCTION      0.00   227.66     0  02:41           0        1.66       0.507
  YS02001898           JUNCTION      0.00   238.72     0  02:41           0        1.65       0.161
  YS02001901           JUNCTION      0.00   238.89     0  02:43           0        1.65       0.368
  YS02001904           JUNCTION      0.00   237.75     0  02:40           0        1.65       0.341
  YS02001907           JUNCTION      0.00   440.24     0  02:50           0        3.57       0.637
  YS02001910           JUNCTION      0.00   203.61     0  03:05           0        1.94       0.560
  YS02001915           JUNCTION    120.46   189.67     0  02:56        1.14        1.94       0.266
  YS02001918           JUNCTION      0.00    65.99     0  02:57           0       0.807       0.180
  YS02001619           JUNCTION    117.38   117.38     0  02:55        1.13        1.13       1.074
  YS02001629           JUNCTION      0.00   198.34     0  02:53           0        1.05       2.738
  YS02001641           JUNCTION      0.00   268.49     0  02:37           0        2.28       0.923
  YS02001644           JUNCTION    128.79   413.09     0  04:45        1.29        3.79       0.686
  YS02001652           JUNCTION      0.00   226.53     0  02:29           0        1.19       1.982
  YS02001655           JUNCTION      0.15   385.46     0  02:47     0.00434        1.21       1.999
  YS02001920           JUNCTION      2.87    61.89     0  03:01      0.0809        0.81       0.300
  YS02001923           JUNCTION      0.04    59.02     0  03:01     0.00106       0.729       0.054
  YS02001926           JUNCTION      0.05    59.08     0  03:01     0.00147       0.731       0.372
  YS02001929           JUNCTION     59.05    59.05     0  03:01        0.73        0.73       0.053
  YS02001658           JUNCTION      0.00   519.05     0  03:18           0        1.32       1.290
  YS02001661           JUNCTION      0.00   428.93     0  04:06           0        1.87       0.418
  YS02001664           JUNCTION    154.92   375.61     0  04:06        1.24        1.78       0.187
  YS02001622           JUNCTION      0.00   157.50     0  03:03           0        1.11       2.916
  YS02001633           JUNCTION    131.02   270.15     0  02:27        1.33        2.34       1.373
  YS02001649           JUNCTION      0.00   594.68     0  02:50           0        4.29       0.861
  YS02001757           JUNCTION      0.00  1024.40     0  02:38           0        8.08       1.146
  YS02001895           JUNCTION      0.00   228.57     0  02:42           0        1.65       0.254
  YS02001625           JUNCTION      0.00   198.01     0  02:53           0        1.08       3.767
  YS02163301           JUNCTION      0.00   161.97     0  02:27           0        1.04       2.333
  YS02163601           JUNCTION      0.11   269.89     0  02:27      0.0031        2.29       1.315
  YS02164001           JUNCTION      0.00   269.82     0  02:27           0        2.28       0.864
  YS02001647           JUNCTION      0.00   392.24     0  02:59           0        3.23       0.849
  YSB1154              JUNCTION     20.99    20.99     0  02:12        0.07      0.0712       2.068
  YSB6556              JUNCTION      0.00    21.01     0  02:14           0      0.0721       1.761
  YSB1174              JUNCTION     20.11    20.11     0  02:07      0.0508      0.0517       2.543
  YSB1171              JUNCTION      0.00    38.89     0  02:13           0       0.129       5.137
  YS02006553           JUNCTION      0.00   431.50     0  02:51           0        3.56       0.404
  YS02006561           JUNCTION      0.00   635.31     0  02:48           0        5.04       0.003
  YS02006556           JUNCTION      0.00   429.29     0  02:51           0        3.57       0.301
  YS02006558           JUNCTION    184.83   618.58     0  02:51        1.53        5.07       0.104
  YS02001783           JUNCTION      0.00   602.20     0  02:50           0        5.04       0.037
  YS02001784           JUNCTION      1.06   601.80     0  02:51      0.0299        5.07       0.060
  YS02001786           JUNCTION      0.06   599.51     0  02:51     0.00159        5.07       0.056
  YS02001788           JUNCTION      0.07   598.03     0  02:52       0.002        5.07       0.033
  YS02001790           JUNCTION      0.15   598.38     0  02:52     0.00437        5.07       0.039
  YS02001791           JUNCTION      0.00   595.81     0  02:52           0        5.07       0.021
  YS02001793           JUNCTION      0.00   647.63     0  03:04           0        5.07      -0.006
  WS02004139           JUNCTION      0.32   379.53     0  03:00     0.00905        5.33       0.623
  WSC                  OUTFALL       0.00   901.20     0  03:04           0        13.2       0.000
  3                    OUTFALL       0.00   527.97     0  02:20           0        3.46       0.000
  4                    OUTFALL       0.00   139.42     0  02:50           0       0.345       0.000
  5                    OUTFALL       0.00     0.00     0  00:00           0           0       0.000 ltr
  JK-storage           STORAGE       0.00   997.64     0  03:02           0        5.22     -11.530
  CC-storage           STORAGE       0.00  1024.70     0  02:38           0        7.81       0.469
  XR-storage           STORAGE     418.12   418.12     0  02:54         7.9         8.5      -0.001
  
  
  **********************
  Node Surcharge Summary
  **********************
  
  Surcharging occurs when water rises above the top of the highest conduit.
  ---------------------------------------------------------------------
                                               Max. Height   Min. Depth
                                   Hours       Above Crown    Below Rim
  Node                 Type      Surcharged         Meters       Meters
  ---------------------------------------------------------------------
  WS02004404           JUNCTION        0.18          0.025        2.755
  WS02004405           JUNCTION        0.10          0.009        2.791
  WS02006109           JUNCTION        1.99          0.272        1.548
  WS02006110           JUNCTION        0.59          0.111        1.739
  WS02006112           JUNCTION        0.71          0.188        1.492
  WS02006230           JUNCTION        0.17          0.153        1.417
  WS02006231           JUNCTION        0.29          0.269        1.261
  WS02006232           JUNCTION        2.22          0.323        1.157
  WS02006234           JUNCTION        0.64          0.254        0.986
  WS02006235           JUNCTION        1.23          0.267        1.023
  WS02006238           JUNCTION        1.72          0.281        1.149
  WS02006240           JUNCTION        0.50          0.516        0.874
  WS02006242           JUNCTION        1.31          0.762        0.058
  WS02006239           JUNCTION        0.69          0.421        0.869
  WS02006252           JUNCTION        2.14          0.193        0.907
  WS02006228           JUNCTION        1.85          0.316        1.884
  YS02001748           JUNCTION        3.60          0.214        0.976
  YS02001751           JUNCTION        4.67          0.953        0.247
  YS02001754           JUNCTION        5.22          0.916        0.234
  YS02001762           JUNCTION        5.49          1.003        0.147
  YS02001765           JUNCTION        5.47          0.956        0.144
  YS02001767           JUNCTION        5.44          0.910        0.120
  YS02001770           JUNCTION        5.34          0.865        0.055
  YS02001774           JUNCTION        5.49          0.962        0.088
  YS02001779           JUNCTION        5.16          0.680        0.000
  YS02001759           JUNCTION        5.50          1.045        0.165
  YS02001907           JUNCTION        0.17          0.038        0.912
  YS02001619           JUNCTION        4.56          0.610        0.000
  YS02001629           JUNCTION        4.61          0.470        0.000
  YS02001641           JUNCTION        5.47          0.933        0.167
  YS02001644           JUNCTION        5.47          0.920        0.000
  YS02001652           JUNCTION        5.25          1.055        0.075
  YS02001655           JUNCTION        4.71          1.200        0.000
  YS02001658           JUNCTION        3.71          1.300        0.000
  YS02001661           JUNCTION        0.02          0.207        1.183
  YS02001622           JUNCTION        4.70          0.620        0.000
  YS02001633           JUNCTION        5.45          0.924        0.136
  YS02001649           JUNCTION        5.49          1.049        0.001
  YS02001757           JUNCTION        5.54          1.148        0.062
  YS02001625           JUNCTION        5.27          0.780        0.000
  YS02163301           JUNCTION        5.42          0.884        0.146
  YS02163601           JUNCTION        5.48          0.990        0.090
  YS02164001           JUNCTION        5.46          0.922        0.178
  YS02001647           JUNCTION        5.26          0.788        0.112
  YS02006553           JUNCTION        0.46          0.043        1.147
  YS02001784           JUNCTION        0.01          0.006        1.484
  YS02001790           JUNCTION        0.95          0.784        0.373
  YS02001791           JUNCTION        1.00          0.656        1.264
  YS02001793           JUNCTION        1.09          1.455        1.145
  
  
  *********************
  Node Flooding Summary
  *********************
  
  Flooding refers to all water that overflows a node, whether it ponds or not.
  --------------------------------------------------------------------------
                                                             Total   Maximum
                                 Maximum   Time of Max       Flood    Ponded
                        Hours       Rate    Occurrence      Volume     Depth
  Node                 Flooded       LPS   days hr:min    10^6 ltr    Meters
  --------------------------------------------------------------------------
  YS02001779              0.57      7.46      0  05:20       0.004     0.000
  YS02001619              0.01     19.59      0  03:23       0.000     0.000
  YS02001629              0.01      0.94      0  04:09       0.000     0.000
  YS02001644              1.92    413.07      0  04:45       0.776     0.000
  YS02001655              0.01    105.46      0  02:53       0.000     0.000
  YS02001658              0.01    141.01      0  03:18       0.000     0.000
  YS02001622              0.01     25.47      0  03:25       0.000     0.000
  YS02001625              0.05      4.55      0  04:09       0.000     0.000
  JK-storage              0.84    417.49      0  03:30       0.669     0.000
  XR-storage              4.93    308.33      0  02:30       2.245     0.000
  
  
  **********************
  Storage Volume Summary
  **********************
  
  --------------------------------------------------------------------------------------------------
                         Average     Avg  Evap Exfil       Maximum     Max    Time of Max    Maximum
                          Volume    Pcnt  Pcnt  Pcnt        Volume    Pcnt     Occurrence    Outflow
  Storage Unit           1000 m3    Full  Loss  Loss       1000 m3    Full    days hr:min        LPS
  --------------------------------------------------------------------------------------------------
  JK-storage               0.088      30     0     0         0.291     100       0  03:09     600.00
  CC-storage               2.719      17     0     0         3.817      24       0  04:41     400.00
  XR-storage               0.889      96     0     0         0.926     100       0  02:27     379.99
  
  
  ***********************
  Outfall Loading Summary
  ***********************
  
  -----------------------------------------------------------
                         Flow       Avg       Max       Total
                         Freq      Flow      Flow      Volume
  Outfall Node           Pcnt       LPS       LPS    10^6 ltr
  -----------------------------------------------------------
  WSC                  100.00    543.54    901.20      13.208
  3                     79.44    222.57    527.97       3.462
  4                     41.02     38.35    139.42       0.345
  5                      0.00      0.00      0.00       0.000
  -----------------------------------------------------------
  System                55.11    804.47   1305.02      17.014
  
  
  ********************
  Link Flow Summary
  ********************
  
  -----------------------------------------------------------------------------
                                 Maximum  Time of Max   Maximum    Max/    Max/
                                  |Flow|   Occurrence   |Veloc|    Full    Full
  Link                 Type          LPS  days hr:min     m/sec    Flow   Depth
  -----------------------------------------------------------------------------
  WS02003066WSF200     CONDUIT    610.73     0  02:27      2.86    0.10    0.24
  WS02006287WS02006284 CONDUIT    330.12     0  02:14      1.90    0.15    0.27
  WS02006284WS02006280 CONDUIT    330.25     0  02:15      2.14    0.14    0.25
  WS02006280WS02006229 CONDUIT    330.25     0  02:15      3.44    0.07    0.18
  WS02006229WS02006228 CONDUIT    630.18     0  02:17      1.25    2.09    1.00
  WS02006256WS02006235 CONDUIT    150.00     0  00:25      2.14    1.59    1.00
  WS02006253WS02006251 CONDUIT     72.54     0  02:15      0.58    0.22    0.94
  WS02006252WS02006251 CONDUIT    400.58     0  07:09      3.19    1.47    1.00
  WS02006251WS02006249 CONDUIT    426.17     0  02:50      1.17    1.23    0.91
  WS02006249WS02006248 CONDUIT    349.87     0  06:20      1.24    1.92    0.86
  WS02006248WS02006247 CONDUIT    344.35     0  06:20      1.21    0.75    0.91
  WS02006247WS02006245 CONDUIT    338.40     0  06:21      1.18    2.68    0.95
  WS02006245WS02006243 CONDUIT    332.00     0  06:21      1.22    0.98    0.97
  WS02006243WS02006242 CONDUIT    337.08     0  07:00      1.02    0.72    1.00
  WS02006242WS02006240 CONDUIT    339.70     0  07:00      0.90    1.35    1.00
  WS02006240WS02006239 CONDUIT    344.35     0  07:00      0.94    1.08    1.00
  WS02006239WS02006238 CONDUIT    344.99     0  07:00      0.91    1.10    1.00
  WS02006238WS02006235 CONDUIT    344.76     0  07:00      0.91    0.77    1.00
  WS02006235WS02006234 CONDUIT    394.26     0  06:01      1.03    4.16    1.00
  WS02006234WS02006232 CONDUIT    392.25     0  06:02      1.02    0.79    1.00
  WS02006232WS02006231 CONDUIT    392.17     0  06:01      1.07    0.82    1.00
  WS02006231WS02006230 CONDUIT    389.78     0  06:02      1.34    5.91    1.00
  WS02006230WS02006229 CONDUIT    399.22     0  04:22      1.04    8.88    1.00
  WS02006228WS02006109 CONDUIT    630.27     0  02:17      1.25    2.75    1.00
  WS02006116WS02004401 CONDUIT    619.56     0  02:23      0.86    0.85    0.91
  WS02006115WS02006116 CONDUIT    624.45     0  02:21      0.98    0.80    0.84
  WS02006113WS02006111 CONDUIT    651.59     0  02:20      2.60    0.78    0.50
  WS02006112WS02006115 CONDUIT    645.43     0  02:20      0.89    0.38    0.91
  WS02006111WS02006112 CONDUIT    631.18     0  02:20      1.71    0.30    0.69
  WS02006110WS02006113 CONDUIT    630.84     0  02:18      1.45    0.57    0.81
  WS02006109WS02006110 CONDUIT    631.46     0  02:17      1.26    1.21    1.00
  WS02004411WS02004412 CONDUIT    610.87     0  02:27      0.99    0.87    0.74
  WS02004401WS02004402 CONDUIT    618.66     0  02:23      0.82    0.74    0.93
  WS02004413WS02003067 CONDUIT    610.69     0  02:27      1.19    0.26    0.62
  WS02004412WS02004413 CONDUIT    610.77     0  02:27      0.89    0.41    0.81
  WS02004410WS02004411 CONDUIT    611.76     0  02:25      1.00    0.84    0.73
  WS02004409WS02004410 CONDUIT    613.85     0  02:25      1.05    0.79    0.72
  WS02004407WS02004409 CONDUIT    617.71     0  02:24      1.59    0.22    0.52
  WS02004406WS02004407 CONDUIT    618.03     0  02:24      1.13    0.28    0.66
  WS02004405WS02004406 CONDUIT    618.31     0  02:23      0.79    1.22    1.00
  WS02004404WS02004405 CONDUIT    619.93     0  02:23      0.96    6.07    1.00
  WS02004403WS02004404 CONDUIT    619.25     0  02:23      0.85    0.45    0.98
  WS02004402WS02004403 CONDUIT    617.65     0  02:23      0.85    0.89    0.95
  WS02004139WS02001211 CONDUIT    373.86     0  03:00      0.81    0.47    0.59
  WS02004138WS02004139 CONDUIT    379.21     0  03:00      3.34    0.08    0.43
  WS02003067WS02003066 CONDUIT    610.72     0  02:27      1.30    0.20    0.43
  WS02001213WS02003059 CONDUIT    375.64     0  03:01      0.78    0.62    0.76
  WS02001212WS02001213 CONDUIT    375.67     0  03:01      1.19    0.58    0.46
  WS02001211WS02001212 CONDUIT    377.10     0  03:01      0.73    0.29    0.64
  WS02003072WS02003073 CONDUIT    899.83     0  03:03      1.70    1.94    0.47
  WS02003069WS02003072 CONDUIT    900.15     0  03:03      1.60    0.43    0.50
  WS02003060WS02003069 CONDUIT    900.33     0  03:02      1.85    0.35    0.45
  WS02003059WS02003060 CONDUIT    376.02     0  03:02      0.82    0.25    0.65
  HS02004901HS02004770 CONDUIT     16.87     0  02:11      0.06    0.06    0.38
  HS02004876HS02004881 CONDUIT     58.22     0  02:15      0.83    0.62    0.10
  HS02004870HS02004876 CONDUIT     46.60     0  02:15      0.57    0.03    0.12
  HS02004842HS02004848 CONDUIT      7.98     0  02:27      0.04    0.00    0.29
  HS02004837HS02004842 CONDUIT      8.26     0  02:28      0.42    0.00    0.31
  HS02004830HS02004837 CONDUIT     33.73     0  02:15      0.51    0.03    0.09
  HS02004824HS02004830 CONDUIT     33.87     0  02:16      0.55    0.04    0.09
  HS02004817HS02004824 CONDUIT     58.51     0  02:18      0.19    0.03    0.44
  HS02004770HS02004777 CONDUIT     85.89     0  02:11      0.31    0.16    0.40
  HS02004799HS02004480 CONDUIT    211.89     0  02:12      0.75    0.27    0.40
  HS02004792HS02004799 CONDUIT    193.55     0  02:12      0.86    0.12    0.32
  HS02004788HS02004792 CONDUIT    112.45     0  02:13      0.99    0.07    0.16
  HS02004785HS02004788 CONDUIT     85.52     0  02:13      0.65    0.64    0.19
  HS02004777HS02004785 CONDUIT     85.46     0  02:12      0.37    0.11    0.33
  HS02004480HS02004478 CONDUIT    250.51     0  02:13      1.17    1.06    0.31
  HS02004479HS02004480 CONDUIT     39.34     0  02:15      0.16    0.04    0.39
  HS02004862HS02004870 CONDUIT     34.43     0  02:16      0.58    0.04    0.09
  HS02004848HS02004852 CONDUIT     14.76     0  02:15      0.39    0.02    0.05
  HS02004856HS02004862 CONDUIT     23.76     0  02:15      0.43    0.02    0.08
  HS02004852HS02004856 CONDUIT     14.72     0  02:16      0.19    0.02    0.11
  HS02004802HS02004478 CONDUIT     82.62     0  02:18      0.38    0.07    0.32
  HS02004478WS02006287 CONDUIT    330.07     0  02:14      1.60    0.09    0.23
  HS02004817HS02004807 CONDUIT     60.08     0  02:20      0.15    0.04    0.58
  HS02004807HS02004802 CONDUIT     81.95     0  02:17      0.32    0.16    0.37
  YS02001759YS02001757 CONDUIT    364.30     0  02:55      0.46    0.26    1.00
  YS02001762YS02001759 CONDUIT    197.36     0  02:55      0.25    0.23    1.00
  YS02001765YS02001762 CONDUIT    194.18     0  02:55      0.25    0.18    1.00
  YS02001770YS02001767 CONDUIT    196.18     0  02:28      0.31    0.78    1.00
  YS02001774YS02001770 CONDUIT     63.58     0  02:23      0.14    0.04    1.00
  YS02001779YS02001774 CONDUIT     60.11     0  02:23      0.08    0.03    1.00
  YS02001649YS02001757 CONDUIT    595.20     0  02:50      0.76    0.36    1.00
  YS02001767YS02001765 CONDUIT    193.30     0  02:28      0.26    0.24    1.00
  YS02006561YS02001783 CONDUIT    602.20     0  02:50      2.10    0.31    0.66
  YS02001783YS02001784 CONDUIT    600.74     0  02:51      1.53    0.83    0.98
  YS02001784YS02001785 CONDUIT    599.45     0  02:51      1.65    1.40    1.00
  YS02001788YS02001790 CONDUIT    598.22     0  02:52      2.18    0.44    1.00
  YS02001790YS02001791 CONDUIT    595.81     0  02:52      2.57    0.65    1.00
  YS02001791YS02001793 CONDUIT    647.63     0  03:04      5.34    0.28    1.00
  YS02001910YS02001907 CONDUIT    206.56     0  02:50      0.49    0.12    0.90
  YS02001786YS02001788 CONDUIT    597.96     0  02:52      2.09    1.15    0.99
  YS02001915YS02001910 CONDUIT    203.61     0  03:05      0.45    0.10    0.70
  YS02001918YS02001915 CONDUIT     72.35     0  03:07      0.44    0.04    0.41
  YS02001923YS02001920 CONDUIT     59.02     0  03:01      0.56    0.03    0.21
  YS02001926YS02001923 CONDUIT     58.99     0  03:01      0.63    0.08    0.18
  YS02001929YS02001926 CONDUIT     59.02     0  03:01      0.68    0.03    0.17
  YS02001920YS02001918 CONDUIT     65.99     0  02:57      0.56    0.06    0.28
  YS02001629YS02163301 CONDUIT    161.97     0  02:27      0.21    0.20    1.00
  YS02001619YS02001622 CONDUIT    157.50     0  03:03      0.74    0.23    1.00
  YS02001622YS02001625 CONDUIT    198.01     0  02:53      0.31    0.11    1.00
  YS02001625YS02001629 CONDUIT    198.34     0  02:53      0.30    0.09    1.00
  YS02163301YS02001633 CONDUIT    157.84     0  02:27      0.20    0.15    1.00
  YS02163601YS02164001 CONDUIT    269.82     0  02:27      0.34    0.24    1.00
  YS02164001YS02001641 CONDUIT    268.49     0  02:37      0.34    0.37    1.00
  YS02001641YS02001644 CONDUIT    268.31     0  02:37      0.34    0.87    1.00
  YS02001647YS02001649 CONDUIT    412.79     0  02:28      0.53    0.22    1.00
  YS02006553YS02006556 CONDUIT    429.29     0  02:51      0.55    0.37    0.98
  YS02006556YS02006558 CONDUIT    435.71     0  02:51      0.56    0.34    1.00
  YSB6556YSB1171       CONDUIT     21.39     0  02:15      0.08    0.02    0.66
  YS02001907YS02006553 CONDUIT    431.50     0  02:51      0.48    0.51    1.00
  YS02006558YS02006561 CONDUIT    635.31     0  02:48      3.05    1.40    0.71
  YS02001633YS02163601 CONDUIT    269.78     0  02:27      0.34    0.28    1.00
  YS02001644YS02001647 CONDUIT    392.24     0  02:59      0.50    0.23    1.00
  YS02001745YS02001748 CONDUIT    422.31     0  03:24      1.58    0.16    0.93
  YS02001748YS02001751 CONDUIT    360.17     0  02:57      1.22    0.18    1.00
  YS02001751YS02001754 CONDUIT    223.08     0  02:34      1.04    0.11    1.00
  YS02001754YS02001757 CONDUIT    210.76     0  02:51      0.33    0.08    1.00
  YS02001882YS02001884 CONDUIT     13.66     0  02:45      0.06    0.02    0.63
  YS02001884YS02001887 CONDUIT     22.78     0  02:42      0.07    0.03    0.73
  YS02001890YS02001895 CONDUIT    228.57     0  02:42      0.39    0.11    0.70
  YS02001895YS02001898 CONDUIT    238.72     0  02:41      0.54    0.41    0.56
  YS02001898YS02001901 CONDUIT    238.89     0  02:43      0.46    0.15    0.64
  YS02001901YS02001904 CONDUIT    237.75     0  02:40      0.42    0.37    0.69
  YS02001904YS02001907 CONDUIT    247.08     0  02:50      0.35    0.09    0.84
  YS02001887YS02001890 CONDUIT    227.66     0  02:41      0.35    0.39    0.78
  YS02001652YS02001649 CONDUIT    217.79     0  02:51      0.34    0.11    1.00
  YS02001655YS02001652 CONDUIT    226.53     0  02:29      1.10    0.11    1.00
  YS02001658YS02001655 CONDUIT    385.31     0  02:47      1.41    0.16    1.00
  YS02001661YS02001658 CONDUIT    519.05     0  03:18      1.66    0.20    1.00
  YS02001664YS02001661 CONDUIT    428.93     0  04:06      1.45    0.13    0.70
  YSB1154YSB6556       CONDUIT     21.01     0  02:14      0.19    0.04    0.55
  YSB1174YSB1171       CONDUIT     18.73     0  02:10      0.07    0.03    0.66
  YSB1171HS02004479    CONDUIT     39.06     0  02:14      0.54    0.03    0.52
  HS02004881HS02006253 CONDUIT     64.87     0  02:15      2.02    0.01    0.26
  YS02001793JiankangQianchi CONDUIT    997.64     0  03:02     16.04    0.08    1.00
  YS02001757CaochengTiaoxuchi CONDUIT   1024.70     0  02:38      2.27    0.45    1.00
  WSF200WS02003060     CONDUIT    610.72     0  02:28      1.93    0.14    0.33
  1                    CONDUIT    901.20     0  03:04      3.23    0.31    0.38
  2                    CONDUIT    139.42     0  02:50      5.31    0.33    0.40
  3                    CONDUIT    527.97     0  02:20      9.88    0.84    0.71
  4                    CONDUIT      0.00     0  00:00      0.00    0.00    0.00
  CC-Pump-1            PUMP       200.00     0  02:13              1.00
  CC-Pump-2            PUMP       200.00     0  02:40              1.00
  JK-Pump-1            PUMP       300.00     0  02:15              1.00
  JK-Pump-2            PUMP       300.00     0  00:30              1.00
  XR-Pump-1            PUMP        95.00     0  00:00              1.00
  XR-Pump-2            PUMP        95.00     0  00:20              1.00
  XR-Pump-3            PUMP        95.00     0  00:00              1.00
  XR-Pump-4            PUMP        95.00     0  00:00              1.00
  
  
  ***************************
  Flow Classification Summary
  ***************************
  
  -------------------------------------------------------------------------------------
                      Adjusted    ---------- Fraction of Time in Flow Class ---------- 
                       /Actual         Up    Down  Sub   Sup   Up    Down  Norm  Inlet 
  Conduit               Length    Dry  Dry   Dry   Crit  Crit  Crit  Crit  Ltd   Ctrl  
  -------------------------------------------------------------------------------------
  WS02003066WSF200        1.00   0.05  0.00  0.00  0.00  0.95  0.00  0.00  0.69  0.00
  WS02006287WS02006284    1.00   0.04  0.01  0.00  0.66  0.29  0.00  0.00  0.75  0.00
  WS02006284WS02006280    1.00   0.04  0.00  0.00  0.00  0.00  0.00  0.96  0.00  0.00
  WS02006280WS02006229    1.00   0.04  0.00  0.00  0.00  0.00  0.00  0.96  0.00  0.00
  WS02006229WS02006228    1.00   0.00  0.00  0.00  1.00  0.00  0.00  0.00  0.00  0.00
  WS02006256WS02006235    1.00   0.01  0.00  0.00  0.99  0.00  0.00  0.00  0.00  0.00
  WS02006253WS02006251    1.00   0.01  0.03  0.00  0.96  0.00  0.00  0.00  0.00  0.00
  WS02006252WS02006251    1.00   0.07  0.00  0.00  0.00  0.00  0.93  0.00  0.00  0.00
  WS02006251WS02006249    1.00   0.00  0.00  0.00  1.00  0.00  0.00  0.00  0.25  0.00
  WS02006249WS02006248    1.00   0.00  0.00  0.00  0.92  0.00  0.07  0.00  0.00  0.00
  WS02006248WS02006247    1.00   0.00  0.00  0.00  0.97  0.00  0.00  0.02  0.14  0.00
  WS02006247WS02006245    1.00   0.00  0.00  0.00  0.98  0.00  0.00  0.02  0.00  0.00
  WS02006245WS02006243    1.00   0.01  0.00  0.00  0.95  0.00  0.00  0.04  0.01  0.00
  WS02006243WS02006242    1.00   0.01  0.00  0.00  0.99  0.00  0.00  0.00  0.21  0.00
  WS02006242WS02006240    1.00   0.01  0.00  0.00  0.99  0.00  0.00  0.00  0.00  0.00
  WS02006240WS02006239    1.00   0.01  0.00  0.00  0.96  0.00  0.00  0.03  0.01  0.00
  WS02006239WS02006238    1.00   0.01  0.00  0.00  0.99  0.00  0.00  0.00  0.03  0.00
  WS02006238WS02006235    1.00   0.01  0.00  0.00  0.99  0.00  0.00  0.00  0.00  0.00
  WS02006235WS02006234    1.00   0.01  0.00  0.00  0.96  0.00  0.03  0.00  0.00  0.00
  WS02006234WS02006232    1.00   0.01  0.00  0.00  0.99  0.00  0.00  0.00  0.02  0.00
  WS02006232WS02006231    1.00   0.01  0.00  0.00  0.99  0.00  0.00  0.00  0.00  0.00
  WS02006231WS02006230    1.00   0.01  0.00  0.00  0.62  0.00  0.37  0.00  0.00  0.00
  WS02006230WS02006229    1.00   0.00  0.00  0.00  0.99  0.00  0.00  0.01  0.01  0.00
  WS02006228WS02006109    1.00   0.00  0.00  0.00  1.00  0.00  0.00  0.00  0.00  0.00
  WS02006116WS02004401    1.00   0.03  0.00  0.00  0.97  0.00  0.00  0.00  0.00  0.00
  WS02006115WS02006116    1.00   0.03  0.00  0.00  0.97  0.00  0.00  0.01  0.00  0.00
  WS02006113WS02006111    1.00   0.01  0.00  0.00  0.00  0.98  0.00  0.00  0.11  0.00
  WS02006112WS02006115    1.00   0.02  0.01  0.00  0.97  0.00  0.00  0.00  0.00  0.00
  WS02006111WS02006112    1.00   0.02  0.00  0.00  0.98  0.00  0.00  0.00  0.92  0.00
  WS02006110WS02006113    1.00   0.00  0.01  0.00  0.99  0.00  0.00  0.00  0.00  0.00
  WS02006109WS02006110    1.00   0.00  0.00  0.00  1.00  0.00  0.00  0.00  0.00  0.00
  WS02004411WS02004412    1.00   0.04  0.00  0.00  0.96  0.00  0.00  0.00  0.00  0.00
  WS02004401WS02004402    1.00   0.03  0.00  0.00  0.97  0.00  0.00  0.00  0.00  0.00
  WS02004413WS02003067    1.00   0.04  0.01  0.00  0.00  0.00  0.95  0.00  0.00  0.00
  WS02004412WS02004413    1.00   0.04  0.00  0.00  0.96  0.00  0.00  0.00  0.01  0.00
  WS02004410WS02004411    1.00   0.04  0.00  0.00  0.96  0.00  0.00  0.00  0.01  0.00
  WS02004409WS02004410    1.00   0.04  0.00  0.00  0.96  0.00  0.00  0.00  0.03  0.00
  WS02004407WS02004409    1.00   0.04  0.00  0.00  0.96  0.00  0.00  0.00  0.89  0.00
  WS02004406WS02004407    1.00   0.00  0.04  0.00  0.96  0.00  0.00  0.00  0.00  0.00
  WS02004405WS02004406    1.00   0.00  0.00  0.00  1.00  0.00  0.00  0.00  0.04  0.00
  WS02004404WS02004405    1.00   0.00  0.00  0.00  1.00  0.00  0.00  0.00  0.00  0.00
  WS02004403WS02004404    1.00   0.00  0.03  0.00  0.97  0.00  0.00  0.00  0.00  0.00
  WS02004402WS02004403    1.00   0.03  0.00  0.00  0.97  0.00  0.00  0.00  0.00  0.00
  WS02004139WS02001211    1.00   0.00  0.00  0.00  1.00  0.00  0.00  0.00  0.00  0.00
  WS02004138WS02004139    1.00   0.00  0.00  0.00  1.00  0.00  0.00  0.00  1.00  0.00
  WS02003067WS02003066    1.00   0.05  0.00  0.00  0.95  0.00  0.00  0.00  0.00  0.00
  WS02001213WS02003059    1.00   0.00  0.00  0.00  1.00  0.00  0.00  0.00  0.00  0.00
  WS02001212WS02001213    1.00   0.00  0.00  0.00  0.80  0.00  0.19  0.00  0.00  0.00
  WS02001211WS02001212    1.00   0.00  0.00  0.00  1.00  0.00  0.00  0.00  0.00  0.00
  WS02003072WS02003073    1.00   0.00  0.00  0.00  0.00  0.00  0.00  1.00  0.00  0.00
  WS02003069WS02003072    1.00   0.00  0.00  0.00  1.00  0.00  0.00  0.00  0.30  0.00
  WS02003060WS02003069    1.00   0.00  0.00  0.00  0.99  0.01  0.00  0.00  0.16  0.00
  WS02003059WS02003060    1.00   0.00  0.00  0.00  1.00  0.00  0.00  0.00  0.01  0.00
  HS02004901HS02004770    1.00   0.04  0.00  0.00  0.96  0.00  0.00  0.00  0.02  0.00
  HS02004876HS02004881    1.00   0.00  0.00  0.00  0.97  0.03  0.00  0.00  0.00  0.00
  HS02004870HS02004876    1.00   0.00  0.00  0.00  1.00  0.00  0.00  0.00  0.95  0.00
  HS02004842HS02004848    1.00   0.00  0.04  0.00  0.96  0.00  0.00  0.00  0.66  0.00
  HS02004837HS02004842    1.00   0.00  0.00  0.00  1.00  0.00  0.00  0.00  0.11  0.00
  HS02004830HS02004837    1.00   0.00  0.00  0.00  1.00  0.00  0.00  0.00  0.99  0.00
  HS02004824HS02004830    1.00   0.00  0.00  0.00  1.00  0.00  0.00  0.00  0.00  0.00
  HS02004817HS02004824    1.00   0.00  0.00  0.00  1.00  0.00  0.00  0.00  1.00  0.00
  HS02004770HS02004777    1.00   0.00  0.04  0.00  0.96  0.00  0.00  0.00  0.06  0.00
  HS02004799HS02004480    1.00   0.00  0.01  0.00  0.95  0.00  0.05  0.00  0.00  0.00
  HS02004792HS02004799    1.00   0.00  0.00  0.00  1.00  0.00  0.00  0.00  0.98  0.00
  HS02004788HS02004792    1.00   0.00  0.00  0.00  1.00  0.00  0.00  0.00  0.98  0.00
  HS02004785HS02004788    1.00   0.00  0.00  0.00  1.00  0.00  0.00  0.00  0.00  0.00
  HS02004777HS02004785    1.00   0.00  0.00  0.00  1.00  0.00  0.00  0.00  0.19  0.00
  HS02004480HS02004478    1.00   0.04  0.00  0.00  0.70  0.00  0.00  0.25  0.00  0.00
  HS02004479HS02004480    1.00   0.01  0.00  0.00  0.99  0.00  0.00  0.00  0.15  0.00
  HS02004862HS02004870    1.00   0.00  0.00  0.00  1.00  0.00  0.00  0.00  0.06  0.00
  HS02004848HS02004852    1.00   0.04  0.00  0.00  0.96  0.00  0.00  0.00  0.71  0.00
  HS02004856HS02004862    1.00   0.00  0.06  0.00  0.94  0.00  0.00  0.00  0.75  0.00
  HS02004852HS02004856    1.00   0.04  0.01  0.00  0.95  0.00  0.00  0.00  0.83  0.00
  HS02004802HS02004478    1.00   0.04  0.00  0.00  0.95  0.00  0.00  0.00  0.01  0.00
  HS02004478WS02006287    1.00   0.05  0.00  0.00  0.80  0.15  0.00  0.00  0.72  0.00
  HS02004817HS02004807    1.00   0.00  0.04  0.00  0.96  0.00  0.00  0.00  0.00  0.00
  HS02004807HS02004802    1.00   0.04  0.00  0.00  0.96  0.00  0.00  0.00  0.01  0.00
  YS02001759YS02001757    1.00   0.00  0.00  0.00  1.00  0.00  0.00  0.00  0.17  0.00
  YS02001762YS02001759    1.00   0.00  0.00  0.00  1.00  0.00  0.00  0.00  0.04  0.00
  YS02001765YS02001762    1.00   0.00  0.00  0.00  1.00  0.00  0.00  0.00  0.21  0.00
  YS02001770YS02001767    1.00   0.00  0.00  0.00  1.00  0.00  0.00  0.00  0.00  0.00
  YS02001774YS02001770    1.00   0.00  0.05  0.00  0.95  0.00  0.00  0.00  0.06  0.00
  YS02001779YS02001774    1.00   0.00  0.00  0.00  1.00  0.00  0.00  0.00  0.25  0.00
  YS02001649YS02001757    1.00   0.00  0.00  0.00  1.00  0.00  0.00  0.00  0.19  0.00
  YS02001767YS02001765    1.00   0.00  0.00  0.00  1.00  0.00  0.00  0.00  0.01  0.00
  YS02006561YS02001783    1.00   0.06  0.00  0.00  0.15  0.78  0.00  0.00  0.63  0.00
  YS02001783YS02001784    1.00   0.00  0.06  0.00  0.94  0.00  0.00  0.00  0.00  0.00
  YS02001784YS02001785    1.00   0.00  0.00  0.00  1.00  0.00  0.00  0.00  0.24  0.00
  YS02001788YS02001790    1.00   0.00  0.00  0.00  0.24  0.76  0.00  0.00  0.65  0.00
  YS02001790YS02001791    1.00   0.00  0.00  0.00  0.18  0.82  0.00  0.00  0.55  0.00
  YS02001791YS02001793    1.00   0.00  0.00  0.00  0.22  0.78  0.00  0.00  0.03  0.00
  YS02001910YS02001907    1.00   0.00  0.00  0.00  1.00  0.00  0.00  0.00  0.13  0.00
  YS02001786YS02001788    1.00   0.00  0.00  0.00  0.23  0.77  0.00  0.00  0.00  0.00
  YS02001915YS02001910    1.00   0.00  0.00  0.00  1.00  0.00  0.00  0.00  0.23  0.00
  YS02001918YS02001915    1.00   0.00  0.00  0.00  1.00  0.00  0.00  0.00  0.65  0.00
  YS02001923YS02001920    1.00   0.00  0.00  0.00  1.00  0.00  0.00  0.00  1.00  0.00
  YS02001926YS02001923    1.00   0.00  0.03  0.00  0.00  0.00  0.97  0.00  0.00  0.00
  YS02001929YS02001926    1.00   0.00  0.04  0.00  0.96  0.00  0.00  0.00  0.87  0.00
  YS02001920YS02001918    1.00   0.00  0.00  0.00  1.00  0.00  0.00  0.00  0.00  0.00
  YS02001629YS02163301    1.00   0.05  0.00  0.00  0.94  0.00  0.00  0.00  0.00  0.00
  YS02001619YS02001622    1.00   0.04  0.00  0.00  0.96  0.00  0.00  0.00  0.00  0.00
  YS02001622YS02001625    1.00   0.04  0.00  0.00  0.96  0.00  0.00  0.00  0.12  0.00
  YS02001625YS02001629    1.00   0.04  0.02  0.00  0.93  0.00  0.01  0.00  0.00  0.00
  YS02163301YS02001633    1.00   0.00  0.05  0.00  0.95  0.00  0.00  0.00  0.00  0.00
  YS02163601YS02164001    1.00   0.00  0.03  0.00  0.97  0.00  0.00  0.00  0.00  0.00
  YS02164001YS02001641    1.00   0.00  0.03  0.00  0.97  0.00  0.00  0.00  0.07  0.00
  YS02001641YS02001644    1.00   0.00  0.00  0.00  1.00  0.00  0.00  0.00  0.00  0.00
  YS02001647YS02001649    1.00   0.00  0.06  0.00  0.94  0.00  0.00  0.00  0.01  0.00
  YS02006553YS02006556    1.00   0.00  0.00  0.00  1.00  0.00  0.00  0.00  0.03  0.00
  YS02006556YS02006558    1.00   0.00  0.00  0.00  1.00  0.00  0.00  0.00  0.00  0.00
  YSB6556YSB1171          1.00   0.01  0.03  0.00  0.96  0.00  0.00  0.00  0.00  0.00
  YS02001907YS02006553    1.00   0.00  0.00  0.00  1.00  0.00  0.00  0.00  0.00  0.00
  YS02006558YS02006561    1.00   0.06  0.00  0.00  0.00  0.94  0.00  0.00  0.56  0.00
  YS02001633YS02163601    1.00   0.00  0.00  0.00  1.00  0.00  0.00  0.00  0.19  0.00
  YS02001644YS02001647    1.00   0.00  0.06  0.00  0.94  0.00  0.00  0.00  0.00  0.00
  YS02001745YS02001748    1.00   0.00  0.00  0.00  0.90  0.01  0.00  0.10  0.05  0.00
  YS02001748YS02001751    1.00   0.00  0.00  0.00  0.98  0.02  0.00  0.00  0.22  0.00
  YS02001751YS02001754    1.00   0.00  0.00  0.00  0.93  0.00  0.00  0.07  0.01  0.00
  YS02001754YS02001757    1.00   0.00  0.00  0.00  1.00  0.00  0.00  0.00  0.25  0.00
  YS02001882YS02001884    1.00   0.05  0.00  0.00  0.95  0.00  0.00  0.00  0.00  0.00
  YS02001884YS02001887    1.00   0.02  0.02  0.00  0.96  0.00  0.00  0.00  0.00  0.00
  YS02001890YS02001895    1.00   0.00  0.06  0.00  0.94  0.00  0.00  0.00  0.00  0.00
  YS02001895YS02001898    1.00   0.06  0.00  0.00  0.94  0.00  0.01  0.00  0.00  0.00
  YS02001898YS02001901    1.00   0.05  0.00  0.00  0.94  0.00  0.00  0.00  0.02  0.00
  YS02001901YS02001904    1.00   0.05  0.00  0.00  0.95  0.00  0.00  0.00  0.00  0.00
  YS02001904YS02001907    1.00   0.00  0.05  0.00  0.95  0.00  0.00  0.00  0.00  0.00
  YS02001887YS02001890    1.00   0.00  0.00  0.00  0.99  0.00  0.00  0.00  0.00  0.00
  YS02001652YS02001649    1.00   0.00  0.00  0.00  1.00  0.00  0.00  0.00  0.25  0.00
  YS02001655YS02001652    1.00   0.00  0.00  0.00  0.93  0.00  0.00  0.07  0.01  0.00
  YS02001658YS02001655    1.00   0.00  0.05  0.00  0.93  0.02  0.00  0.00  0.07  0.00
  YS02001661YS02001658    1.00   0.05  0.00  0.00  0.90  0.06  0.00  0.00  0.06  0.00
  YS02001664YS02001661    1.00   0.04  0.00  0.00  0.85  0.11  0.00  0.00  0.31  0.00
  YSB1154YSB6556          1.00   0.04  0.00  0.00  0.96  0.00  0.00  0.00  0.02  0.00
  YSB1174YSB1171          1.00   0.01  0.03  0.00  0.97  0.00  0.00  0.00  0.00  0.00
  YSB1171HS02004479       1.00   0.01  0.00  0.00  0.99  0.00  0.00  0.00  0.13  0.00
  HS02004881HS02006253    1.00   0.01  0.00  0.00  0.82  0.01  0.00  0.16  0.62  0.00
  YS02001793JiankangQianchi    1.00   0.00  0.00  0.00  0.44  0.55  0.00  0.00  0.29  0.00
  YS02001757CaochengTiaoxuchi    1.00   0.00  0.07  0.00  0.91  0.01  0.00  0.00  0.00  0.00
  WSF200WS02003060        1.00   0.00  0.05  0.00  0.48  0.47  0.00  0.00  0.17  0.00
  1                       1.00   0.00  0.00  0.00  0.00  1.00  0.00  0.00  0.35  0.00
  2                       1.00   0.59  0.00  0.00  0.00  0.41  0.00  0.00  0.08  0.00
  3                       1.00   0.21  0.00  0.00  0.00  0.79  0.00  0.00  0.29  0.00
  4                       1.00   1.00  0.00  0.00  0.00  0.00  0.00  0.00  0.00  0.00
  
  
  *************************
  Conduit Surcharge Summary
  *************************
  
  ----------------------------------------------------------------------------
                                                           Hours        Hours 
                         --------- Hours Full --------   Above Full   Capacity
  Conduit                Both Ends  Upstream  Dnstream   Normal Flow   Limited
  ----------------------------------------------------------------------------
  WS02006229WS02006228        1.85      2.14      1.85      4.38         1.84
  WS02006256WS02006235        5.77      5.78      7.20      2.40         0.01
  WS02006252WS02006251        0.95      0.95      2.14      1.83         0.01
  WS02006251WS02006249        0.01      0.01      0.01      0.99         0.01
  WS02006249WS02006248        0.01      0.01      0.01      4.53         0.01
  WS02006247WS02006245        0.01      0.01      0.01      4.92         0.01
  WS02006243WS02006242        0.01      0.01      1.31      0.01         0.01
  WS02006242WS02006240        0.50      0.50      1.79      2.09         0.01
  WS02006240WS02006239        0.59      0.59      0.69      0.05         0.01
  WS02006239WS02006238        1.59      1.60      1.72      0.19         0.13
  WS02006238WS02006235        1.55      1.55      2.12      0.01         0.01
  WS02006235WS02006234        0.64      0.64      1.23      5.71         0.01
  WS02006234WS02006232        0.68      0.68      2.22      0.01         0.01
  WS02006232WS02006231        0.29      0.29      2.22      0.01         0.01
  WS02006231WS02006230        0.17      0.17      0.33      5.83         0.01
  WS02006230WS02006229        3.30      4.17      3.30      5.93         3.30
  WS02006228WS02006109        1.99      2.72      1.99      4.95         1.99
  WS02006112WS02006115        0.01      0.01      0.71      0.01         0.01
  WS02006111WS02006112        0.01      0.01      4.53      0.01         0.01
  WS02006110WS02006113        0.01      0.01      2.42      0.01         0.01
  WS02006109WS02006110        0.59      0.59      2.72      0.60         0.01
  WS02004405WS02004406        0.01      0.10      0.01      0.66         0.01
  WS02004404WS02004405        0.10      0.18      0.10      5.70         0.10
  WS02004403WS02004404        0.01      0.01      0.18      0.01         0.01
  WS02003072WS02003073        0.01      0.01      0.01      4.34         0.01
  HS02004480HS02004478        0.01      0.01      0.01      0.14         0.01
  YS02001759YS02001757        5.50      5.50      5.54      0.01         0.01
  YS02001762YS02001759        5.49      5.49      5.50      0.01         0.01
  YS02001765YS02001762        5.47      5.47      5.49      0.01         0.01
  YS02001770YS02001767        5.43      5.43      5.44      0.01         0.66
  YS02001774YS02001770        5.34      5.34      5.49      0.01         0.01
  YS02001779YS02001774        5.16      5.16      5.49      0.01         0.01
  YS02001649YS02001757        5.49      5.49      5.54      0.01         0.01
  YS02001767YS02001765        5.44      5.44      5.47      0.01         0.01
  YS02001783YS02001784        0.01      0.01      0.01      0.01         0.01
  YS02001784YS02001785        0.01      0.01      0.01      1.10         0.01
  YS02001788YS02001790        0.01      0.01      0.95      0.01         0.01
  YS02001790YS02001791        0.95      0.95      1.00      0.01         0.01
  YS02001791YS02001793        1.00      1.00      1.12      0.01         0.01
  YS02001910YS02001907        0.01      0.01      0.17      0.01         0.01
  YS02001786YS02001788        0.01      0.01      0.01      0.64         0.01
  YS02001629YS02163301        5.35      5.35      5.42      0.01         0.01
  YS02001619YS02001622        4.56      4.56      4.70      0.01         0.02
  YS02001622YS02001625        4.70      4.70      5.27      0.01         0.01
  YS02001625YS02001629        4.61      4.61      5.27      0.01         0.01
  YS02163301YS02001633        5.42      5.42      5.47      0.01         0.01
  YS02163601YS02164001        5.46      5.46      5.48      0.01         0.01
  YS02164001YS02001641        5.46      5.46      5.47      0.01         0.01
  YS02001641YS02001644        5.47      5.47      5.47      0.01         0.93
  YS02001647YS02001649        5.26      5.26      5.49      0.01         0.01
  YS02006553YS02006556        0.01      0.01      0.46      0.01         0.01
  YS02006556YS02006558        0.01      0.01      0.62      0.01         0.01
  YS02001907YS02006553        1.11      1.11      1.32      0.01         0.01
  YS02006558YS02006561        0.01      0.01      0.01      0.97         0.01
  YS02001633YS02163601        5.45      5.45      5.48      0.01         0.01
  YS02001644YS02001647        5.26      5.26      5.47      0.01         0.01
  YS02001745YS02001748        0.01      0.01      3.60      0.01         0.01
  YS02001748YS02001751        4.33      4.33      4.66      0.01         0.01
  YS02001751YS02001754        4.66      4.66      5.22      0.01         0.01
  YS02001754YS02001757        5.26      5.26      5.54      0.01         0.01
  YS02001904YS02001907        0.01      0.01      0.54      0.01         0.01
  YS02001652YS02001649        5.28      5.28      5.49      0.01         0.01
  YS02001655YS02001652        4.71      4.71      5.25      0.01         0.01
  YS02001658YS02001655        3.71      3.71      4.71      0.01         0.01
  YS02001661YS02001658        0.02      0.02      3.71      0.01         0.01
  YS02001664YS02001661        0.01      0.01      0.46      0.01         0.01
  YS02001793JiankangQianchi        1.09      1.09      2.76      0.01         0.01
  YS02001757CaochengTiaoxuchi        4.32      4.32      5.54      0.01         0.01
  
  
  ***************
  Pumping Summary
  ***************
  
  ---------------------------------------------------------------------------------------------------------
                                                  Min       Avg       Max     Total     Power    % Time Off
                        Percent   Number of      Flow      Flow      Flow    Volume     Usage    Pump Curve
  Pump                 Utilized   Start-Ups       LPS       LPS       LPS  10^6 ltr     Kw-hr    Low   High
  ---------------------------------------------------------------------------------------------------------
  CC-Pump-1               70.15           2      0.00    146.94    200.00     2.853      4.64    0.0    9.5
  CC-Pump-2               48.87           6      0.00    134.43    200.00     1.839      3.06    0.0    9.2
  JK-Pump-1               68.09           6      0.00    179.73    300.00     2.712     40.58    0.0    0.0
  JK-Pump-2               65.96           8      0.00    174.03    300.00     2.516     38.51    0.0    0.0
  XR-Pump-1               76.59           8      0.00     71.90     95.00     1.539     11.37    0.0    0.0
  XR-Pump-2               68.09           6      0.00     64.87     95.00     1.254      9.96    0.0    0.0
  XR-Pump-3               78.70           9      0.00     63.76     95.00     1.368     10.46    0.0    0.0
  XR-Pump-4               68.07           9      0.00     57.50     95.00     1.169      8.11    0.0    0.0
  

  Analysis begun on:  Tue Dec 21 12:25:28 2021
  Analysis ended on:  Tue Dec 21 12:25:32 2021
  Total elapsed time: 00:00:04