
  EPA STORM WATER MANAGEMENT MODEL - VERSION 5.1 (Build 5.3.0.dev0)
  --------------------------------------------------------------

  WARNING 04: minimum elevation drop used for Conduit WS02004404WS02004405
  WARNING 03: negative offset ignored for Link YS02001904YS02001907
  
  *********************************************************
  NOTE: The summary statistics displayed in this report are
  based on results found at every computational time step,  
  not just on results from each reporting time step.
  *********************************************************
  
  ****************
  Analysis Options
  ****************
  Flow Units ............... LPS
  Process Models:
    Rainfall/Runoff ........ YES
    RDII ................... NO
    Snowmelt ............... NO
    Groundwater ............ NO
    Flow Routing ........... YES
    Ponding Allowed ........ NO
    Water Quality .......... NO
  Infiltration Method ...... HORTON
  Flow Routing Method ...... DYNWAVE
  Surcharge Method ......... EXTRAN
  Starting Date ............ 08/28/2015 08:00:00
  Ending Date .............. 08/28/2015 15:50:00
  Antecedent Dry Days ...... 8.0
  Report Time Step ......... 00:01:00
  Wet Time Step ............ 00:01:00
  Dry Time Step ............ 00:01:00
  Routing Time Step ........ 5.00 sec
  Variable Time Step ....... YES
  Maximum Trials ........... 8
  Number of Threads ........ 4
  Head Tolerance ........... 0.001500 m
  
  
  **************************        Volume         Depth
  Runoff Quantity Continuity     hectare-m            mm
  **************************     ---------       -------
  Total Precipitation ......         2.606         5.704
  Evaporation Loss .........         0.000         0.000
  Infiltration Loss ........         0.653         1.430
  Surface Runoff ...........         1.076         2.357
  Final Storage ............         0.876         1.918
  Continuity Error (%) .....        -0.018
  
  
  **************************        Volume        Volume
  Flow Routing Continuity        hectare-m      10^6 ltr
  **************************     ---------     ---------
  Dry Weather Inflow .......         0.616         6.165
  Wet Weather Inflow .......         1.076        10.758
  Groundwater Inflow .......         0.000         0.000
  RDII Inflow ..............         0.000         0.000
  External Inflow ..........         0.102         1.024
  External Outflow .........         1.481        14.814
  Flooding Loss ............         0.177         1.771
  Evaporation Loss .........         0.000         0.000
  Exfiltration Loss ........         0.000         0.000
  Initial Stored Volume ....         0.076         0.761
  Final Stored Volume ......         0.342         3.416
  Continuity Error (%) .....        -6.917
  
  
  *************************
  Highest Continuity Errors
  *************************
  Node JK-storage (-39.06%)
  Node HS02004842 (29.23%)
  Node YS02001884 (23.51%)
  Node YS02001774 (8.76%)
  Node YSB1171 (7.25%)
  
  
  ***************************
  Time-Step Critical Elements
  ***************************
  Link WS02006252WS02006251 (52.57%)
  Link 3 (37.10%)
  Link WS02006238WS02006235 (3.58%)
  Link WS02006280WS02006229 (1.92%)
  
  
  ********************************
  Highest Flow Instability Indexes
  ********************************
  Link WS02006113WS02006111 (44)
  Link WS02006111WS02006112 (23)
  Link WS02006110WS02006113 (2)
  Link YS02001767YS02001765 (2)
  Link YS02001649YS02001757 (2)
  
  
  *************************
  Routing Time Step Summary
  *************************
  Minimum Time Step           :     0.07 sec
  Average Time Step           :     0.93 sec
  Maximum Time Step           :     5.00 sec
  Percent in Steady State     :    -0.00
  Average Iterations per Step :     2.13
  Percent Not Converging      :     1.39
  
  
  ***************************
  Subcatchment Runoff Summary
  ***************************
  
  ------------------------------------------------------------------------------------------------------------------------------
                            Total      Total      Total      Total     Imperv       Perv      Total       Total     Peak  Runoff
                           Precip      Runon       Evap      Infil     Runoff     Runoff     Runoff      Runoff   Runoff   Coeff
  Subcatchment                 mm         mm         mm         mm         mm         mm         mm    10^6 ltr      LPS
  ------------------------------------------------------------------------------------------------------------------------------
  sub0                       5.70       0.00       0.00       0.40       4.04       0.00       4.04        0.00     1.41   0.708
  sub1                       5.70       0.00       0.00       0.63       3.82       0.00       3.82        0.03     7.22   0.670
  sub2                       5.70       0.00       0.00       2.11       2.69       0.00       2.69        0.03     6.36   0.471
  sub3                       5.70       0.00       0.00       2.11       2.65       0.00       2.65        0.06    13.02   0.465
  sub4                       5.70       0.00       0.00       0.63       3.69       0.00       3.69        0.08    14.55   0.646
  sub5                       5.70       0.00       0.00       0.40       3.99       0.00       3.99        0.05    12.85   0.700
  sub7                       5.70       0.00       0.00       0.51       3.94       0.00       3.94        0.01     4.57   0.690
  sub8                       5.70       0.00       0.00       0.51       3.93       0.00       3.93        0.03     8.03   0.689
  sub9                       5.70       0.00       0.00       0.51       3.93       0.00       3.93        0.02     5.95   0.688
  sub10                      5.70       0.00       0.00       0.46       3.96       0.00       3.96        0.04    12.84   0.694
  sub11                      5.70       0.00       0.00       0.46       3.97       0.00       3.97        0.05    15.14   0.697
  sub12                      5.70       0.00       0.00       0.74       3.77       0.00       3.77        0.03    12.93   0.662
  sub14                      5.70       0.00       0.00       0.51       3.92       0.00       3.92        0.04    11.63   0.688
  sub15                      5.70       0.00       0.00       1.71       3.02       0.00       3.02        0.05    15.75   0.529
  sub16                      5.70       0.00       0.00       1.88       2.90       0.00       2.90        0.03    11.34   0.509
  sub17                      5.70       0.00       0.00       1.83       2.95       0.00       2.95        0.03     9.14   0.516
  sub22                      5.70       0.00       0.00       2.45       2.46       0.00       2.46        0.16    51.83   0.432
  sub23                      5.70       0.00       0.00       2.11       2.72       0.00       2.72        0.13    44.17   0.478
  sub60                      5.70       0.00       0.00       0.68       2.62       0.00       2.62        0.79    72.66   0.459
  sub61                      5.70       0.00       0.00       0.97       2.81       0.00       2.81        0.87    91.45   0.493
  sub62                      5.70       0.00       0.00       0.46       3.01       0.00       3.01        0.93    93.36   0.528
  sub63                      5.70       0.00       0.00       1.65       2.51       0.00       2.51        0.76    85.50   0.439
  sub64                      5.70       0.00       0.00       0.86       2.50       0.00       2.50        0.76    68.99   0.438
  sub65                      5.70       0.00       0.00       0.74       2.53       0.00       2.53        0.78    69.98   0.444
  sub66                      5.70       0.00       0.00       1.65       2.19       0.00       2.19        0.67    63.30   0.383
  sub67                      5.70       0.00       0.00       0.46       3.32       0.00       3.32        1.02   120.30   0.582
  sub68                      5.70       0.00       0.00       0.80       2.99       0.00       2.99        0.92   101.21   0.525
  sub69                      5.70       0.00       0.00       0.86       3.24       0.00       3.24        0.76   101.03   0.568
  sub70                      5.70       3.31       0.00       3.06       3.95       0.00       3.95        0.90    80.29   0.438
  sub71                      5.70       0.00       0.00       0.46       2.88       0.00       2.88        0.68    65.09   0.504
  sub72                      5.70       0.00       0.00       0.40       2.01       0.00       2.01        0.41    30.49   0.353
  sub73                      5.70       3.84       0.00       3.25       4.00       0.00       4.00        0.94    68.79   0.419
  sub74                      5.70       0.00       0.00       4.28       0.98       0.00       0.98        0.39    56.49   0.171
  
  
  ******************
  Node Depth Summary
  ******************
  
  ---------------------------------------------------------------------------------
                                 Average  Maximum  Maximum  Time of Max    Reported
                                   Depth    Depth      HGL   Occurrence   Max Depth
  Node                 Type       Meters   Meters   Meters  days hr:min      Meters
  ---------------------------------------------------------------------------------
  WS02001211           JUNCTION     0.59     0.70     5.54     0  03:11        0.70
  WS02001212           JUNCTION     0.33     0.43     5.49     0  02:53        0.43
  WS02001213           JUNCTION     0.56     0.68     5.44     0  02:53        0.68
  WS02003069           JUNCTION     0.40     0.53     5.11     0  02:54        0.52
  WS02003072           JUNCTION     0.47     0.59     4.96     0  02:54        0.59
  WS02003073           JUNCTION     0.28     0.36     4.42     0  02:55        0.36
  WS02003060           JUNCTION     0.36     0.46     5.40     0  02:53        0.46
  WS02003066           JUNCTION     0.23     0.29     5.84     0  02:48        0.29
  WS02003059           JUNCTION     0.63     0.74     5.43     0  02:53        0.74
  WS02003067           JUNCTION     0.56     0.69     6.01     0  02:48        0.69
  WS02004401           JUNCTION     0.66     0.83     6.83     0  02:44        0.83
  WS02004402           JUNCTION     0.69     0.86     6.82     0  02:44        0.85
  WS02004403           JUNCTION     0.71     0.87     6.80     0  02:44        0.87
  WS02004404           JUNCTION     0.79     0.94     6.79     0  02:44        0.94
  WS02004406           JUNCTION     0.79     0.94     6.77     0  02:45        0.94
  WS02004409           JUNCTION     0.48     0.65     6.42     0  02:47        0.65
  WS02004410           JUNCTION     0.50     0.66     6.38     0  02:47        0.66
  WS02004411           JUNCTION     0.51     0.67     6.35     0  02:47        0.67
  WS02004412           JUNCTION     0.53     0.68     6.32     0  02:47        0.68
  WS02004413           JUNCTION     0.68     0.84     6.31     0  02:48        0.84
  WS02004405           JUNCTION     0.78     0.94     6.79     0  02:44        0.94
  WS02006109           JUNCTION     0.74     0.94     7.56     0  02:40        0.94
  WS02006110           JUNCTION     0.73     0.90     7.48     0  02:40        0.90
  WS02006111           JUNCTION     0.21     0.28     6.99     0  02:43        0.28
  WS02006112           JUNCTION     0.83     1.02     6.90     0  02:43        1.02
  WS02006113           JUNCTION     0.33     0.44     7.33     0  02:41        0.44
  WS02006115           JUNCTION     0.55     0.73     6.87     0  02:44        0.73
  WS02006116           JUNCTION     0.63     0.81     6.85     0  02:44        0.81
  WS02006230           JUNCTION     0.70     0.98     7.72     0  02:41        0.98
  WS02006231           JUNCTION     0.47     0.66     7.78     0  02:41        0.66
  WS02006232           JUNCTION     0.60     0.79     7.83     0  02:41        0.79
  WS02006234           JUNCTION     0.52     0.74     7.90     0  02:41        0.74
  WS02006235           JUNCTION     0.55     0.77     7.94     0  02:41        0.77
  WS02006238           JUNCTION     0.58     0.80     7.95     0  02:41        0.80
  WS02006240           JUNCTION     0.47     0.73     8.02     0  02:41        0.73
  WS02006242           JUNCTION     0.53     0.80     8.07     0  02:41        0.80
  WS02006243           JUNCTION     0.41     0.69     8.11     0  02:41        0.69
  WS02006245           JUNCTION     0.39     0.66     8.15     0  02:41        0.66
  WS02006247           JUNCTION     0.41     0.67     8.17     0  02:41        0.67
  WS02006248           JUNCTION     0.36     0.61     8.19     0  02:41        0.61
  WS02006249           JUNCTION     0.39     0.62     8.22     0  02:42        0.62
  WS02006239           JUNCTION     0.53     0.78     7.99     0  02:41        0.78
  WS02006251           JUNCTION     0.38     0.65     8.32     0  02:43        0.65
  WS02006252           JUNCTION     0.34     0.59     8.83     0  03:09        0.58
  WS02006253           JUNCTION     0.41     0.67     8.32     0  02:42        0.67
  WS02006256           JUNCTION     1.03     2.35     9.28     0  00:00        1.20
  WS02004138           JUNCTION     0.13     0.17     7.42     0  04:09        0.17
  WS02004407           JUNCTION     0.22     0.29     6.60     0  02:45        0.29
  WS02006228           JUNCTION     0.73     0.97     7.62     0  02:40        0.97
  WS02006229           JUNCTION     0.71     0.96     7.66     0  02:40        0.96
  WS02006280           JUNCTION     0.05     0.14     8.41     0  02:18        0.14
  WS02006284           JUNCTION     0.35     0.48     8.88     0  02:18        0.48
  WS02006287           JUNCTION     0.08     0.21     9.16     0  02:18        0.21
  WSF200               JUNCTION     0.21     0.30     5.53     0  02:51        0.30
  HS02004901           JUNCTION     0.11     0.23    10.05     0  02:16        0.23
  HS02004881           JUNCTION     0.01     0.02     9.05     0  02:17        0.02
  HS02004876           JUNCTION     0.04     0.10     9.13     0  02:16        0.10
  HS02004870           JUNCTION     0.01     0.04     9.33     0  02:18        0.04
  HS02004862           JUNCTION     0.01     0.05     9.43     0  02:19        0.05
  HS02004856           JUNCTION     0.07     0.10     9.53     0  02:18        0.10
  HS02004852           JUNCTION     0.01     0.03     9.54     0  02:19        0.03
  HS02004848           JUNCTION     0.01     0.03     9.63     0  02:17        0.03
  HS02004842           JUNCTION     0.33     0.36     9.63     0  02:17        0.36
  HS02004837           JUNCTION     0.03     0.05     9.63     0  02:17        0.05
  HS02004830           JUNCTION     0.04     0.06     9.53     0  02:18        0.06
  HS02004824           JUNCTION     0.02     0.04     9.44     0  02:21        0.04
  HS02004817           JUNCTION     0.42     0.52     9.37     0  02:19        0.52
  HS02004807           JUNCTION     0.11     0.20     9.37     0  02:19        0.20
  HS02004802           JUNCTION     0.15     0.23     9.36     0  02:19        0.23
  HS02004799           JUNCTION     0.10     0.25     9.46     0  02:17        0.25
  HS02004792           JUNCTION     0.02     0.10     9.62     0  02:16        0.10
  HS02004788           JUNCTION     0.02     0.07     9.97     0  02:17        0.07
  HS02004785           JUNCTION     0.03     0.13    10.03     0  02:16        0.13
  HS02004777           JUNCTION     0.13     0.25    10.05     0  02:16        0.25
  HS02004770           JUNCTION     0.10     0.22    10.05     0  02:16        0.22
  HS02004480           JUNCTION     0.06     0.20     9.44     0  02:17        0.20
  HS02004479           JUNCTION     0.10     0.23     9.44     0  02:17        0.23
  HS02004478           JUNCTION     0.05     0.12     9.35     0  02:18        0.12
  YS02001745           JUNCTION     0.08     0.11     7.63     0  03:01        0.11
  YS02001748           JUNCTION     0.31     0.46     7.54     0  04:16        0.46
  YS02001751           JUNCTION     0.49     0.66     7.54     0  04:16        0.66
  YS02001754           JUNCTION     0.75     0.93     7.54     0  04:17        0.93
  YS02001762           JUNCTION     0.94     1.19     7.59     0  03:06        1.15
  YS02001765           JUNCTION     0.89     1.15     7.60     0  04:02        1.11
  YS02001767           JUNCTION     0.86     1.20     7.69     0  03:07        1.07
  YS02001770           JUNCTION     0.85     1.05     7.55     0  04:17        1.04
  YS02001774           JUNCTION     0.92     1.12     7.54     0  04:17        1.11
  YS02001779           JUNCTION     0.67     0.87     7.55     0  04:18        0.86
  YS02001882           JUNCTION     0.28     0.45     7.16     0  02:52        0.45
  YS02001884           JUNCTION     0.37     0.54     7.16     0  02:53        0.54
  YS02001759           JUNCTION     0.97     1.24     7.60     0  03:06        1.18
  YS02001887           JUNCTION     0.45     0.62     7.16     0  02:53        0.62
  YS02001890           JUNCTION     0.48     0.65     7.16     0  02:53        0.65
  YS02001898           JUNCTION     0.25     0.41     7.14     0  02:54        0.41
  YS02001901           JUNCTION     0.37     0.54     7.14     0  02:54        0.54
  YS02001904           JUNCTION     0.35     0.51     7.14     0  02:54        0.51
  YS02001907           JUNCTION     0.68     0.85     7.14     0  02:55        0.85
  YS02001910           JUNCTION     0.47     0.64     7.14     0  02:55        0.64
  YS02001915           JUNCTION     0.27     0.42     7.14     0  02:54        0.42
  YS02001918           JUNCTION     0.07     0.09     7.16     0  03:03        0.09
  YS02001619           JUNCTION     0.45     0.62     7.55     0  04:16        0.62
  YS02001629           JUNCTION     0.80     0.99     7.54     0  04:16        0.99
  YS02001641           JUNCTION     0.91     1.12     7.56     0  04:18        1.12
  YS02001644           JUNCTION     0.91     1.12     7.56     0  04:18        1.12
  YS02001652           JUNCTION     0.76     0.95     7.55     0  04:17        0.93
  YS02001655           JUNCTION     0.52     0.70     7.55     0  04:16        0.67
  YS02001920           JUNCTION     0.17     0.20     7.21     0  03:02        0.20
  YS02001923           JUNCTION     0.06     0.08     7.34     0  03:02        0.08
  YS02001926           JUNCTION     0.14     0.17     7.62     0  03:01        0.17
  YS02001929           JUNCTION     0.06     0.08     7.78     0  03:01        0.08
  YS02001658           JUNCTION     0.26     0.40     7.55     0  04:16        0.40
  YS02001661           JUNCTION     0.14     0.20     7.60     0  02:45        0.20
  YS02001664           JUNCTION     0.07     0.11     8.04     0  02:45        0.11
  YS02001622           JUNCTION     0.48     0.64     7.54     0  04:17        0.64
  YS02001633           JUNCTION     0.89     1.10     7.56     0  04:17        1.10
  YS02001649           JUNCTION     0.95     1.15     7.54     0  04:17        1.14
  YS02001757           JUNCTION     1.07     1.28     7.54     0  04:16        1.27
  YS02001895           JUNCTION     0.25     0.41     7.15     0  02:53        0.41
  YS02001625           JUNCTION     0.76     0.95     7.55     0  04:16        0.92
  YS02163301           JUNCTION     0.83     1.03     7.55     0  04:17        1.03
  YS02163601           JUNCTION     0.95     1.16     7.56     0  04:17        1.16
  YS02164001           JUNCTION     0.89     1.10     7.56     0  04:18        1.10
  YS02001647           JUNCTION     0.74     0.94     7.55     0  04:18        0.94
  YSB1154              JUNCTION     0.24     0.38     9.44     0  02:17        0.38
  YSB6556              JUNCTION     0.13     0.27     9.44     0  02:17        0.27
  YSB1174              JUNCTION     0.19     0.33     9.44     0  02:16        0.33
  YSB1171              JUNCTION     0.39     0.53     9.44     0  02:17        0.53
  YS02006553           JUNCTION     0.68     0.86     7.14     0  02:54        0.86
  YS02006561           JUNCTION     0.14     0.22     6.88     0  02:54        0.22
  YS02006556           JUNCTION     0.66     0.83     7.14     0  02:54        0.83
  YS02006558           JUNCTION     0.70     0.87     7.14     0  02:54        0.87
  YS02001783           JUNCTION     0.24     0.39     6.53     0  02:54        0.39
  YS02001784           JUNCTION     0.27     0.42     6.49     0  02:55        0.42
  YS02001786           JUNCTION     0.23     0.36     6.39     0  02:55        0.36
  YS02001788           JUNCTION     0.17     0.27     6.24     0  02:55        0.27
  YS02001790           JUNCTION     0.20     0.32     5.97     0  02:56        0.32
  YS02001791           JUNCTION     0.13     0.21     5.68     0  02:51        0.21
  YS02001793           JUNCTION     0.08     0.14     4.97     0  02:53        0.14
  WS02004139           JUNCTION     0.53     0.64     5.55     0  03:10        0.64
  WSC                  OUTFALL      0.28     0.36     1.03     0  02:56        0.36
  3                    OUTFALL      0.08     0.23     6.23     0  00:00        0.20
  4                    OUTFALL      0.02     0.12     7.12     0  02:42        0.12
  5                    OUTFALL      0.00     0.00     5.00     0  00:00        0.00
  JK-storage           STORAGE      0.21     3.00     3.80     0  00:00        2.39
  CC-storage           STORAGE      0.31     0.50     7.50     0  04:17        0.50
  XR-storage           STORAGE      7.57     7.72     5.72     0  02:14        7.72
  
  
  *******************
  Node Inflow Summary
  *******************
  
  -------------------------------------------------------------------------------------------------
                                  Maximum  Maximum                  Lateral       Total        Flow
                                  Lateral    Total  Time of Max      Inflow      Inflow     Balance
                                   Inflow   Inflow   Occurrence      Volume      Volume       Error
  Node                 Type           LPS      LPS  days hr:min    10^6 ltr    10^6 ltr     Percent
  -------------------------------------------------------------------------------------------------
  WS02001211           JUNCTION      7.35   293.26     0  06:18       0.207        5.06       0.643
  WS02001212           JUNCTION      0.00   293.94     0  06:18           0        5.02       0.311
  WS02001213           JUNCTION      0.00   294.58     0  06:17           0        5.01       0.428
  WS02003069           JUNCTION      0.32   786.29     0  02:53     0.00902        12.1       0.225
  WS02003072           JUNCTION      0.00   786.24     0  02:54           0          12       0.281
  WS02003073           JUNCTION      1.82   788.14     0  02:55      0.0514        12.1       0.316
  WS02003060           JUNCTION     16.53   785.29     0  02:53       0.466        12.1       0.214
  WS02003066           JUNCTION      0.00   506.01     0  02:48           0        6.68       0.066
  WS02003059           JUNCTION      0.00   295.80     0  06:17           0        4.99       0.747
  WS02003067           JUNCTION      0.00   505.99     0  02:48           0        6.69       0.139
  WS02004401           JUNCTION      0.00   509.26     0  02:44           0        6.92       0.304
  WS02004402           JUNCTION      0.00   508.76     0  02:44           0         6.9       0.288
  WS02004403           JUNCTION      0.00   508.71     0  02:44           0        6.88       0.262
  WS02004404           JUNCTION      0.16   508.65     0  02:44     0.00457        6.87       0.197
  WS02004406           JUNCTION      0.00   508.68     0  02:45           0        6.83       0.482
  WS02004409           JUNCTION      0.00   508.44     0  02:45           0        6.79       0.236
  WS02004410           JUNCTION      0.00   507.43     0  02:45           0        6.78       0.268
  WS02004411           JUNCTION      0.00   506.65     0  02:46           0        6.76       0.276
  WS02004412           JUNCTION      0.00   506.23     0  02:47           0        6.74       0.299
  WS02004413           JUNCTION      0.00   506.09     0  02:47           0        6.72       0.444
  WS02004405           JUNCTION      0.04   508.62     0  02:44     0.00107        6.85       0.299
  WS02006109           JUNCTION      1.23   507.52     0  02:40      0.0347        7.01       0.296
  WS02006110           JUNCTION      0.00   507.52     0  02:40           0        6.99       0.274
  WS02006111           JUNCTION      0.00   525.91     0  02:41           0        6.96       0.055
  WS02006112           JUNCTION      9.14   514.31     0  02:41      0.0252        6.99       0.391
  WS02006113           JUNCTION      0.00   507.73     0  02:40           0        6.97       0.136
  WS02006115           JUNCTION      0.00   511.87     0  02:41           0        6.96       0.285
  WS02006116           JUNCTION      0.00   509.97     0  02:44           0        6.94       0.275
  WS02006230           JUNCTION     10.28   395.56     0  04:25        0.29        6.14       0.221
  WS02006231           JUNCTION      0.00   386.64     0  04:25           0        5.86       0.166
  WS02006232           JUNCTION      0.00   386.88     0  04:25           0        5.88       0.267
  WS02006234           JUNCTION      0.00   389.10     0  04:24           0        5.88       0.121
  WS02006235           JUNCTION      0.00   389.65     0  04:23           0        5.93       0.179
  WS02006238           JUNCTION      0.00   343.19     0  04:40           0        3.95       0.180
  WS02006240           JUNCTION      0.00   337.10     0  04:40           0        3.94       0.280
  WS02006242           JUNCTION      0.00   338.18     0  03:11           0        3.94       0.354
  WS02006243           JUNCTION      0.00   342.32     0  03:11           0        3.93      -0.240
  WS02006245           JUNCTION      0.00   343.40     0  03:11           0        3.94       0.268
  WS02006247           JUNCTION      0.00   348.36     0  04:21           0        3.95       0.173
  WS02006248           JUNCTION      0.00   354.32     0  04:20           0        3.95       0.064
  WS02006249           JUNCTION      0.00   426.47     0  02:40           0        4.27       0.294
  WS02006239           JUNCTION      0.00   341.86     0  04:40           0        3.94       0.268
  WS02006251           JUNCTION      0.08   426.94     0  02:41     0.00217        4.31       0.199
  WS02006252           JUNCTION      0.00   400.00     0  02:40           0        4.14       0.010
  WS02006253           JUNCTION      1.41    40.03     0  02:17     0.00327       0.168       2.333
  WS02006256           JUNCTION      0.00   600.00     0  00:00           0        4.48       0.046
  WS02004138           JUNCTION      0.00   285.00     0  06:10           0        4.87       0.063
  WS02004407           JUNCTION      0.00   508.53     0  02:45           0         6.8       0.105
  WS02006228           JUNCTION      0.00   506.29     0  02:40           0        6.99       0.214
  WS02006229           JUNCTION      0.00   506.28     0  02:40           0        7.01       0.167
  WS02006280           JUNCTION      0.00   205.87     0  02:18           0       0.877       0.008
  WS02006284           JUNCTION      0.10   205.86     0  02:18      0.0027       0.878       0.121
  WS02006287           JUNCTION      0.00   205.73     0  02:18           0       0.876       0.083
  WSF200               JUNCTION      0.00   505.99     0  02:48           0        6.68       0.063
  HS02004901           JUNCTION     11.34    11.34     0  02:10      0.0304      0.0305       6.107
  HS02004881           JUNCTION      4.57    38.96     0  02:17      0.0133       0.139       0.197
  HS02004876           JUNCTION      7.22    34.72     0  02:18      0.0254       0.127       0.418
  HS02004870           JUNCTION      8.03    27.65     0  02:18      0.0251       0.101       0.105
  HS02004862           JUNCTION      6.56    20.17     0  02:18      0.0307      0.0763       0.221
  HS02004856           JUNCTION      5.95    13.67     0  02:17      0.0189      0.0471       3.153
  HS02004852           JUNCTION      0.00     8.10     0  02:18           0      0.0283       0.179
  HS02004848           JUNCTION     13.02    13.02     0  02:20      0.0597      0.0597       0.073
  HS02004842           JUNCTION      0.00     5.38     0  02:30           0      0.0445      41.298
  HS02004837           JUNCTION     19.19    23.75     0  02:17       0.223       0.254       0.321
  HS02004830           JUNCTION      0.15    23.88     0  02:17     0.00423       0.245       0.506
  HS02004824           JUNCTION     14.60    38.30     0  02:21      0.0782       0.322       0.168
  HS02004817           JUNCTION      0.60    38.89     0  02:21      0.0169       0.338       5.187
  HS02004807           JUNCTION     15.14    52.63     0  02:19      0.0461       0.367       1.164
  HS02004802           JUNCTION      0.00    52.91     0  02:21           0       0.363       1.128
  HS02004799           JUNCTION     11.63   130.55     0  02:16      0.0373       0.454       0.501
  HS02004792           JUNCTION     52.11   119.20     0  02:15       0.163       0.417       0.098
  HS02004788           JUNCTION     17.42    69.42     0  02:16      0.0989       0.254       0.152
  HS02004785           JUNCTION      0.15    52.42     0  02:16     0.00423       0.158       0.307
  HS02004777           JUNCTION      0.03    52.75     0  02:14    0.000846       0.158       3.391
  HS02004770           JUNCTION     44.17    54.12     0  02:12        0.13       0.159       1.991
  HS02004480           JUNCTION      0.00   153.86     0  02:17           0       0.529       0.137
  HS02004479           JUNCTION      0.00    23.83     0  02:18           0      0.0877       0.838
  HS02004478           JUNCTION      0.00   205.72     0  02:18           0       0.877       0.071
  YS02001745           JUNCTION     72.67    72.67     0  03:01       0.793       0.793       0.104
  YS02001748           JUNCTION      0.04   129.20     0  03:02     0.00127         0.8       0.334
  YS02001751           JUNCTION      0.01   195.62     0  03:00     0.00031       0.798       1.314
  YS02001754           JUNCTION      0.26   122.16     0  03:03     0.00733        0.79       2.252
  YS02001762           JUNCTION      0.00   142.28     0  03:00           0       0.874       2.261
  YS02001765           JUNCTION      0.00   118.36     0  02:58           0       0.874       2.483
  YS02001767           JUNCTION      0.54   174.40     0  03:07      0.0151        0.89       3.558
  YS02001770           JUNCTION     93.52   178.68     0  03:06       0.929        1.05       2.616
  YS02001774           JUNCTION      0.00   107.12     0  03:06           0       0.255       9.603
  YS02001779           JUNCTION      0.01    85.31     0  03:06    0.000141       0.112      10.585
  YS02001882           JUNCTION      0.00     4.11     0  02:08           0     0.00514      47.641
  YS02001884           JUNCTION      0.00    11.70     0  02:08           0      0.0206      30.736
  YS02001759           JUNCTION     91.49   230.62     0  03:00       0.867        1.71       1.283
  YS02001887           JUNCTION    120.75   120.75     0  02:43        1.04        1.05       0.684
  YS02001890           JUNCTION      0.00   120.06     0  02:45           0        1.02       0.768
  YS02001898           JUNCTION      0.00   119.51     0  02:47           0        1.01       0.213
  YS02001901           JUNCTION      0.00   119.38     0  02:49           0        1.01       0.544
  YS02001904           JUNCTION      0.00   118.81     0  02:49           0        1.01       0.506
  YS02001907           JUNCTION      0.00   215.97     0  02:56           0        2.16       1.027
  YS02001910           JUNCTION      0.00    98.77     0  03:01           0        1.16       0.877
  YS02001915           JUNCTION     65.11    98.18     0  03:01       0.679        1.17       0.388
  YS02001918           JUNCTION      0.00    33.35     0  03:02           0       0.489       0.226
  YS02001619           JUNCTION     63.30    63.30     0  02:59        0.67        0.67       0.660
  YS02001629           JUNCTION      0.00   127.10     0  03:09           0        0.63       2.391
  YS02001641           JUNCTION      0.00   172.31     0  03:08           0        1.33       1.423
  YS02001644           JUNCTION     69.03   241.41     0  03:08       0.761        2.07       1.127
  YS02001652           JUNCTION      0.00   128.24     0  02:59           0       0.748       2.309
  YS02001655           JUNCTION      0.15   182.13     0  02:59     0.00434       0.764       1.541
  YS02001920           JUNCTION      2.87    33.37     0  03:02      0.0809       0.491       0.412
  YS02001923           JUNCTION      0.04    30.50     0  03:01     0.00106        0.41       0.072
  YS02001926           JUNCTION      0.05    30.53     0  03:01     0.00147       0.411       0.517
  YS02001929           JUNCTION     30.49    30.49     0  03:01        0.41        0.41       0.070
  YS02001658           JUNCTION      0.00    98.21     0  03:41           0       0.762       0.397
  YS02001661           JUNCTION      0.00    85.50     0  02:45           0       0.758       0.088
  YS02001664           JUNCTION     85.50    85.50     0  02:45       0.758       0.758       0.022
  YS02001622           JUNCTION      0.00   100.99     0  03:07           0       0.666       2.010
  YS02001633           JUNCTION     70.18   159.19     0  03:15       0.784        1.38       2.126
  YS02001649           JUNCTION      0.00   349.56     0  03:03           0        2.74       1.278
  YS02001757           JUNCTION      0.00   559.17     0  03:01           0        5.13       1.803
  YS02001895           JUNCTION      0.00   119.56     0  02:45           0        1.02       0.365
  YS02001625           JUNCTION      0.00   119.50     0  03:47           0       0.655       4.521
  YS02163301           JUNCTION      0.00   119.43     0  03:11           0       0.622       3.365
  YS02163601           JUNCTION      0.11   170.23     0  03:04      0.0031        1.35       2.135
  YS02164001           JUNCTION      0.00   175.98     0  03:08           0        1.33       1.372
  YS02001647           JUNCTION      0.00   225.36     0  03:10           0        2.03       1.092
  YSB1154              JUNCTION     12.85    12.85     0  02:15      0.0452      0.0466       3.195
  YSB6556              JUNCTION      0.00    12.79     0  02:17           0      0.0477       2.683
  YSB1174              JUNCTION     12.93    12.93     0  02:09       0.033       0.034       3.923
  YSB1171              JUNCTION      0.00    23.82     0  02:16           0      0.0872       7.814
  YS02006553           JUNCTION      0.00   216.03     0  02:57           0        2.15       0.666
  YS02006561           JUNCTION      0.00   317.02     0  02:54           0        3.04       0.021
  YS02006556           JUNCTION      0.00   216.16     0  03:02           0        2.16       0.481
  YS02006558           JUNCTION    102.09   317.03     0  02:54       0.945        3.07       0.147
  YS02001783           JUNCTION      0.00   317.01     0  02:54           0        3.04       0.050
  YS02001784           JUNCTION      1.06   318.08     0  02:55      0.0299        3.07       0.082
  YS02001786           JUNCTION      0.06   318.11     0  02:55     0.00159        3.07       0.079
  YS02001788           JUNCTION      0.07   318.17     0  02:55       0.002        3.07       0.046
  YS02001790           JUNCTION      0.15   318.33     0  02:56     0.00437        3.07       0.057
  YS02001791           JUNCTION      0.00   318.32     0  02:56           0        3.07       0.028
  YS02001793           JUNCTION      0.00   319.50     0  02:53           0        3.07       0.009
  WS02004139           JUNCTION      0.32   285.32     0  04:03     0.00905        4.88       0.633
  WSC                  OUTFALL       0.00   788.28     0  02:56           0          12       0.000
  3                    OUTFALL       0.00   597.65     0  00:00           0        2.48       0.000
  4                    OUTFALL       0.00   136.66     0  02:42           0       0.313       0.000
  5                    OUTFALL       0.00     0.00     0  00:00           0           0       0.000 ltr
  JK-storage           STORAGE       0.00   319.82     0  02:53           0        3.22     -28.088
  CC-storage           STORAGE       0.00   534.48     0  02:56           0        5.03       0.349
  XR-storage           STORAGE     317.88   317.88     0  02:54        6.97        7.57      -0.001
  
  
  **********************
  Node Surcharge Summary
  **********************
  
  Surcharging occurs when water rises above the top of the highest conduit.
  ---------------------------------------------------------------------
                                               Max. Height   Min. Depth
                                   Hours       Above Crown    Below Rim
  Node                 Type      Surcharged         Meters       Meters
  ---------------------------------------------------------------------
  WS02006109           JUNCTION        1.33          0.118        1.702
  WS02006112           JUNCTION        0.27          0.020        1.660
  WS02006232           JUNCTION        1.41          0.094        1.386
  WS02006234           JUNCTION        0.24          0.018        1.222
  WS02006235           JUNCTION        0.66          0.064        1.226
  WS02006238           JUNCTION        1.04          0.083        1.347
  WS02006240           JUNCTION        0.23          0.019        1.371
  WS02006242           JUNCTION        0.73          0.069        0.751
  WS02006239           JUNCTION        0.29          0.037        1.253
  WS02006252           JUNCTION        1.56          0.187        0.913
  WS02006256           JUNCTION        0.01          1.050        0.000
  WS02006228           JUNCTION        1.24          0.139        2.061
  YS02001762           JUNCTION        4.09          0.195        0.955
  YS02001765           JUNCTION        2.14          0.145        0.955
  YS02001767           JUNCTION        0.56          0.197        0.833
  YS02001770           JUNCTION        0.11          0.025        0.895
  YS02001774           JUNCTION        3.27          0.116        0.934
  YS02001759           JUNCTION        4.72          0.238        0.972
  YS02001641           JUNCTION        2.50          0.123        0.977
  YS02001644           JUNCTION        2.73          0.125        0.795
  YS02001633           JUNCTION        0.95          0.081        0.979
  YS02001649           JUNCTION        4.41          0.146        0.904
  YS02001757           JUNCTION        5.30          0.276        0.934
  YS02163301           JUNCTION        0.23          0.032        0.998
  YS02163601           JUNCTION        4.28          0.160        0.920
  YS02164001           JUNCTION        1.88          0.103        0.997
  
  
  *********************
  Node Flooding Summary
  *********************
  
  Flooding refers to all water that overflows a node, whether it ponds or not.
  --------------------------------------------------------------------------
                                                             Total   Maximum
                                 Maximum   Time of Max       Flood    Ponded
                        Hours       Rate    Occurrence      Volume     Depth
  Node                 Flooded       LPS   days hr:min    10^6 ltr    Meters
  --------------------------------------------------------------------------
  WS02006256              0.01    406.11      0  00:00       0.001     0.000
  XR-storage              4.64    293.00      0  03:30       1.770     0.000
  
  
  **********************
  Storage Volume Summary
  **********************
  
  --------------------------------------------------------------------------------------------------
                         Average     Avg  Evap Exfil       Maximum     Max    Time of Max    Maximum
                          Volume    Pcnt  Pcnt  Pcnt        Volume    Pcnt     Occurrence    Outflow
  Storage Unit           1000 m3    Full  Loss  Loss       1000 m3    Full    days hr:min        LPS
  --------------------------------------------------------------------------------------------------
  JK-storage               0.011       4     0     0         0.151      52       0  00:00     600.00
  CC-storage               0.874       6     0     0         1.396       9       0  04:17     400.00
  XR-storage               0.909      98     0     0         0.926     100       0  02:14     285.00
  
  
  ***********************
  Outfall Loading Summary
  ***********************
  
  -----------------------------------------------------------
                         Flow       Avg       Max       Total
                         Freq      Flow      Flow      Volume
  Outfall Node           Pcnt       LPS       LPS    10^6 ltr
  -----------------------------------------------------------
  WSC                   99.99    500.11    788.28      12.024
  3                     83.62    155.79    597.65       2.477
  4                     25.26     56.68    136.66       0.313
  5                      0.00      0.00      0.00       0.000
  -----------------------------------------------------------
  System                52.22    712.58   1255.00      14.814
  
  
  ********************
  Link Flow Summary
  ********************
  
  -----------------------------------------------------------------------------
                                 Maximum  Time of Max   Maximum    Max/    Max/
                                  |Flow|   Occurrence   |Veloc|    Full    Full
  Link                 Type          LPS  days hr:min     m/sec    Flow   Depth
  -----------------------------------------------------------------------------
  WS02003066WSF200     CONDUIT    505.99     0  02:48      2.74    0.09    0.22
  WS02006287WS02006284 CONDUIT    205.76     0  02:18      1.62    0.10    0.22
  WS02006284WS02006280 CONDUIT    205.87     0  02:18      1.86    0.09    0.20
  WS02006280WS02006229 CONDUIT    205.87     0  02:19      3.00    0.04    0.14
  WS02006229WS02006228 CONDUIT    506.29     0  02:40      1.01    1.68    1.00
  WS02006256WS02006235 CONDUIT    177.52     0  00:01      2.73    1.88    1.00
  WS02006253WS02006251 CONDUIT     44.38     0  02:20      0.49    0.13    0.93
  WS02006252WS02006251 CONDUIT    400.12     0  05:40      3.18    1.47    1.00
  WS02006251WS02006249 CONDUIT    426.47     0  02:40      1.17    1.23    0.90
  WS02006249WS02006248 CONDUIT    354.32     0  04:20      1.16    1.94    0.86
  WS02006248WS02006247 CONDUIT    348.36     0  04:21      1.13    0.76    0.90
  WS02006247WS02006245 CONDUIT    343.40     0  03:11      1.09    2.72    0.94
  WS02006245WS02006243 CONDUIT    342.32     0  03:11      1.11    1.01    0.96
  WS02006243WS02006242 CONDUIT    338.18     0  03:11      0.97    0.72    0.99
  WS02006242WS02006240 CONDUIT    337.10     0  04:40      0.93    1.34    1.00
  WS02006240WS02006239 CONDUIT    341.86     0  04:40      0.96    1.08    1.00
  WS02006239WS02006238 CONDUIT    343.19     0  04:40      0.91    1.10    1.00
  WS02006238WS02006235 CONDUIT    343.47     0  04:40      1.32    0.77    1.00
  WS02006235WS02006234 CONDUIT    389.10     0  04:24      1.04    4.11    1.00
  WS02006234WS02006232 CONDUIT    386.88     0  04:25      1.17    0.78    1.00
  WS02006232WS02006231 CONDUIT    386.64     0  04:25      1.06    0.81    0.96
  WS02006231WS02006230 CONDUIT    385.28     0  04:25      1.36    5.84    0.90
  WS02006230WS02006229 CONDUIT    395.28     0  04:26      1.03    8.80    1.00
  WS02006228WS02006109 CONDUIT    506.29     0  02:40      1.01    2.21    1.00
  WS02006116WS02004401 CONDUIT    509.26     0  02:44      0.74    0.70    0.82
  WS02006115WS02006116 CONDUIT    509.97     0  02:44      0.83    0.65    0.74
  WS02006113WS02006111 CONDUIT    525.91     0  02:41      2.41    0.63    0.45
  WS02006112WS02006115 CONDUIT    511.87     0  02:41      0.72    0.30    0.86
  WS02006111WS02006112 CONDUIT    510.32     0  02:41      1.43    0.24    0.67
  WS02006110WS02006113 CONDUIT    507.73     0  02:40      1.22    0.46    0.77
  WS02006109WS02006110 CONDUIT    507.52     0  02:40      1.01    0.98    0.99
  WS02004411WS02004412 CONDUIT    506.23     0  02:47      0.90    0.72    0.68
  WS02004401WS02004402 CONDUIT    508.76     0  02:44      0.72    0.61    0.84
  WS02004413WS02003067 CONDUIT    505.99     0  02:48      1.07    0.22    0.58
  WS02004412WS02004413 CONDUIT    506.09     0  02:47      0.79    0.34    0.76
  WS02004410WS02004411 CONDUIT    506.65     0  02:46      0.91    0.69    0.67
  WS02004409WS02004410 CONDUIT    507.43     0  02:45      0.94    0.66    0.65
  WS02004407WS02004409 CONDUIT    508.44     0  02:45      1.43    0.18    0.47
  WS02004406WS02004407 CONDUIT    508.53     0  02:45      1.01    0.23    0.61
  WS02004405WS02004406 CONDUIT    508.68     0  02:45      0.66    1.00    0.94
  WS02004404WS02004405 CONDUIT    508.59     0  02:44      0.66    4.98    0.94
  WS02004403WS02004404 CONDUIT    508.48     0  02:44      0.68    0.37    0.91
  WS02004402WS02004403 CONDUIT    508.71     0  02:44      0.71    0.73    0.86
  WS02004139WS02001211 CONDUIT    285.91     0  06:18      0.53    0.36    0.52
  WS02004138WS02004139 CONDUIT    285.00     0  04:03      2.39    0.06    0.38
  WS02003067WS02003066 CONDUIT    506.01     0  02:48      1.17    0.16    0.41
  WS02001213WS02003059 CONDUIT    295.80     0  06:17      0.58    0.49    0.70
  WS02001212WS02001213 CONDUIT    294.58     0  06:17      1.17    0.45    0.39
  WS02001211WS02001212 CONDUIT    293.94     0  06:18      0.66    0.22    0.56
  WS02003072WS02003073 CONDUIT    786.32     0  02:55      1.62    1.70    0.44
  WS02003069WS02003072 CONDUIT    786.24     0  02:54      1.53    0.38    0.46
  WS02003060WS02003069 CONDUIT    785.97     0  02:53      1.79    0.31    0.41
  WS02003059WS02003060 CONDUIT    297.56     0  06:16      0.80    0.19    0.60
  HS02004901HS02004770 CONDUIT     10.34     0  02:15      0.05    0.04    0.32
  HS02004876HS02004881 CONDUIT     34.79     0  02:18      0.56    0.37    0.09
  HS02004870HS02004876 CONDUIT     27.63     0  02:18      0.39    0.02    0.10
  HS02004842HS02004848 CONDUIT      5.38     0  02:30      0.03    0.00    0.27
  HS02004837HS02004842 CONDUIT      5.56     0  02:31      0.41    0.00    0.29
  HS02004830HS02004837 CONDUIT     23.73     0  02:17      0.44    0.02    0.08
  HS02004824HS02004830 CONDUIT     23.88     0  02:18      0.48    0.03    0.07
  HS02004817HS02004824 CONDUIT     38.29     0  02:21      0.17    0.02    0.40
  HS02004770HS02004777 CONDUIT     52.72     0  02:14      0.23    0.10    0.33
  HS02004799HS02004480 CONDUIT    130.35     0  02:16      0.59    0.16    0.31
  HS02004792HS02004799 CONDUIT    119.14     0  02:16      0.68    0.07    0.25
  HS02004788HS02004792 CONDUIT     69.36     0  02:17      0.83    0.05    0.12
  HS02004785HS02004788 CONDUIT     52.33     0  02:17      0.51    0.39    0.15
  HS02004777HS02004785 CONDUIT     52.27     0  02:16      0.27    0.06    0.27
  HS02004480HS02004478 CONDUIT    153.83     0  02:17      0.96    0.65    0.23
  HS02004479HS02004480 CONDUIT     24.06     0  02:20      0.16    0.02    0.31
  HS02004862HS02004870 CONDUIT     20.13     0  02:19      0.47    0.02    0.06
  HS02004848HS02004852 CONDUIT      8.10     0  02:18      0.31    0.01    0.04
  HS02004856HS02004862 CONDUIT     13.63     0  02:18      0.34    0.01    0.06
  HS02004852HS02004856 CONDUIT      8.06     0  02:19      0.12    0.01    0.09
  HS02004802HS02004478 CONDUIT     53.30     0  02:22      0.30    0.05    0.26
  HS02004478WS02006287 CONDUIT    205.73     0  02:18      1.32    0.06    0.17
  HS02004817HS02004807 CONDUIT     39.45     0  02:23      0.11    0.02    0.51
  HS02004807HS02004802 CONDUIT     52.91     0  02:21      0.25    0.10    0.30
  YS02001759YS02001757 CONDUIT    230.13     0  03:03      0.29    0.16    1.00
  YS02001762YS02001759 CONDUIT    140.74     0  03:04      0.18    0.16    1.00
  YS02001765YS02001762 CONDUIT    142.28     0  03:00      0.23    0.13    1.00
  YS02001770YS02001767 CONDUIT    173.87     0  03:07      0.34    0.69    1.00
  YS02001774YS02001770 CONDUIT    107.12     0  03:06      0.14    0.07    1.00
  YS02001779YS02001774 CONDUIT     85.31     0  03:06      0.12    0.04    0.93
  YS02001649YS02001757 CONDUIT    352.58     0  03:05      0.45    0.21    1.00
  YS02001767YS02001765 CONDUIT    118.36     0  02:58      0.26    0.15    1.00
  YS02006561YS02001783 CONDUIT    317.01     0  02:54      1.79    0.16    0.38
  YS02001783YS02001784 CONDUIT    317.02     0  02:55      1.24    0.44    0.51
  YS02001784YS02001785 CONDUIT    318.06     0  02:55      1.32    0.74    0.48
  YS02001788YS02001790 CONDUIT    318.17     0  02:56      1.88    0.23    0.37
  YS02001790YS02001791 CONDUIT    318.32     0  02:56      2.17    0.35    0.34
  YS02001791YS02001793 CONDUIT    319.50     0  02:53      4.41    0.14    0.22
  YS02001910YS02001907 CONDUIT     98.88     0  03:01      0.49    0.06    0.74
  YS02001786YS02001788 CONDUIT    318.10     0  02:55      1.75    0.61    0.39
  YS02001915YS02001910 CONDUIT     98.77     0  03:01      0.44    0.05    0.53
  YS02001918YS02001915 CONDUIT     33.33     0  03:03      0.44    0.02    0.26
  YS02001923YS02001920 CONDUIT     30.50     0  03:02      0.45    0.01    0.14
  YS02001926YS02001923 CONDUIT     30.47     0  03:01      0.49    0.04    0.13
  YS02001929YS02001926 CONDUIT     30.48     0  03:01      0.52    0.01    0.13
  YS02001920YS02001918 CONDUIT     33.35     0  03:02      0.46    0.03    0.15
  YS02001629YS02163301 CONDUIT    119.43     0  03:11      0.16    0.15    1.00
  YS02001619YS02001622 CONDUIT    100.99     0  03:07      0.66    0.15    0.63
  YS02001622YS02001625 CONDUIT    111.38     0  03:09      0.25    0.06    0.79
  YS02001625YS02001629 CONDUIT    127.10     0  03:09      0.25    0.06    0.78
  YS02163301YS02001633 CONDUIT     95.83     0  03:15      0.12    0.09    1.00
  YS02163601YS02164001 CONDUIT    175.98     0  03:08      0.22    0.16    1.00
  YS02164001YS02001641 CONDUIT    172.31     0  03:08      0.22    0.24    1.00
  YS02001641YS02001644 CONDUIT    176.12     0  03:08      0.22    0.57    1.00
  YS02001647YS02001649 CONDUIT    263.13     0  03:04      0.35    0.14    0.97
  YS02006553YS02006556 CONDUIT    216.16     0  03:02      0.31    0.18    0.82
  YS02006556YS02006558 CONDUIT    216.38     0  03:02      0.31    0.17    0.85
  YSB6556YSB1171       CONDUIT     13.00     0  02:19      0.06    0.01    0.57
  YS02001907YS02006553 CONDUIT    216.03     0  02:57      0.26    0.25    0.93
  YS02006558YS02006561 CONDUIT    317.02     0  02:54      2.29    0.70    0.49
  YS02001633YS02163601 CONDUIT    170.12     0  03:04      0.22    0.18    1.00
  YS02001644YS02001647 CONDUIT    225.36     0  03:10      0.30    0.13    0.97
  YS02001745YS02001748 CONDUIT     72.66     0  03:01      1.40    0.03    0.24
  YS02001748YS02001751 CONDUIT    195.61     0  03:00      1.09    0.10    0.56
  YS02001751YS02001754 CONDUIT    103.61     0  03:06      0.97    0.05    0.77
  YS02001754YS02001757 CONDUIT    169.47     0  03:02      0.33    0.07    0.97
  YS02001882YS02001884 CONDUIT      4.11     0  02:08      0.06    0.00    0.46
  YS02001884YS02001887 CONDUIT     11.70     0  02:08      0.06    0.02    0.56
  YS02001890YS02001895 CONDUIT    119.56     0  02:45      0.29    0.06    0.53
  YS02001895YS02001898 CONDUIT    119.51     0  02:47      0.49    0.21    0.39
  YS02001898YS02001901 CONDUIT    119.38     0  02:49      0.33    0.08    0.47
  YS02001901YS02001904 CONDUIT    118.81     0  02:49      0.29    0.18    0.52
  YS02001904YS02001907 CONDUIT    118.98     0  02:51      0.21    0.04    0.68
  YS02001887YS02001890 CONDUIT    120.06     0  02:45      0.24    0.21    0.61
  YS02001652YS02001649 CONDUIT    172.77     0  02:59      0.33    0.09    0.98
  YS02001655YS02001652 CONDUIT    128.24     0  02:59      1.05    0.06    0.81
  YS02001658YS02001655 CONDUIT    181.98     0  02:59      1.26    0.08    0.54
  YS02001661YS02001658 CONDUIT     85.50     0  02:45      1.45    0.03    0.24
  YS02001664YS02001661 CONDUIT     85.50     0  02:45      1.11    0.03    0.15
  YSB1154YSB6556       CONDUIT     12.79     0  02:17      0.19    0.02    0.46
  YSB1174YSB1171       CONDUIT     11.96     0  02:11      0.06    0.02    0.58
  YSB1171HS02004479    CONDUIT     23.83     0  02:18      0.54    0.02    0.45
  HS02004881HS02006253 CONDUIT     38.95     0  02:18      1.66    0.01    0.25
  YS02001793JiankangQianchi CONDUIT    319.82     0  02:53     13.27    0.03    0.55
  YS02001757CaochengTiaoxuchi CONDUIT    534.48     0  02:56      1.23    0.23    0.75
  WSF200WS02003060     CONDUIT    505.13     0  02:48      1.84    0.11    0.32
  1                    CONDUIT    788.28     0  02:56      3.12    0.27    0.36
  2                    CONDUIT    136.66     0  02:42      5.28    0.33    0.39
  3                    CONDUIT    597.65     0  00:00     10.05    0.95    0.86
  4                    CONDUIT      0.00     0  00:00      0.00    0.00    0.00
  CC-Pump-1            PUMP       200.00     0  02:30              1.00
  CC-Pump-2            PUMP       200.00     0  02:40              1.00
  JK-Pump-1            PUMP       300.00     0  00:00              1.00
  JK-Pump-2            PUMP       300.00     0  00:00              1.00
  XR-Pump-1            PUMP        95.00     0  00:40              1.00
  XR-Pump-2            PUMP        95.00     0  00:00              1.00
  XR-Pump-3            PUMP        95.00     0  00:40              1.00
  XR-Pump-4            PUMP        95.00     0  02:40              1.00
  
  
  ***************************
  Flow Classification Summary
  ***************************
  
  -------------------------------------------------------------------------------------
                      Adjusted    ---------- Fraction of Time in Flow Class ---------- 
                       /Actual         Up    Down  Sub   Sup   Up    Down  Norm  Inlet 
  Conduit               Length    Dry  Dry   Dry   Crit  Crit  Crit  Crit  Ltd   Ctrl  
  -------------------------------------------------------------------------------------
  WS02003066WSF200        1.00   0.08  0.00  0.00  0.00  0.92  0.00  0.00  0.65  0.00
  WS02006287WS02006284    1.00   0.04  0.02  0.00  0.68  0.27  0.00  0.00  0.77  0.00
  WS02006284WS02006280    1.00   0.04  0.00  0.00  0.00  0.00  0.00  0.96  0.00  0.00
  WS02006280WS02006229    1.00   0.04  0.00  0.00  0.00  0.00  0.00  0.96  0.00  0.00
  WS02006229WS02006228    1.00   0.00  0.00  0.00  0.98  0.00  0.00  0.02  0.00  0.00
  WS02006256WS02006235    1.00   0.00  0.00  0.00  1.00  0.00  0.00  0.00  0.00  0.00
  WS02006253WS02006251    1.00   0.03  0.01  0.00  0.96  0.00  0.00  0.00  0.00  0.00
  WS02006252WS02006251    1.00   0.09  0.00  0.00  0.00  0.00  0.91  0.00  0.00  0.00
  WS02006251WS02006249    1.00   0.00  0.00  0.00  1.00  0.00  0.00  0.00  0.29  0.00
  WS02006249WS02006248    1.00   0.00  0.02  0.00  0.88  0.00  0.10  0.00  0.00  0.00
  WS02006248WS02006247    1.00   0.02  0.00  0.00  0.97  0.00  0.00  0.01  0.20  0.00
  WS02006247WS02006245    1.00   0.02  0.00  0.00  0.96  0.00  0.00  0.02  0.00  0.00
  WS02006245WS02006243    1.00   0.02  0.00  0.00  0.93  0.00  0.00  0.05  0.02  0.00
  WS02006243WS02006242    1.00   0.01  0.01  0.00  0.98  0.00  0.00  0.00  0.27  0.00
  WS02006242WS02006240    1.00   0.01  0.00  0.00  0.99  0.00  0.00  0.00  0.00  0.00
  WS02006240WS02006239    1.00   0.00  0.00  0.00  0.95  0.00  0.00  0.05  0.02  0.00
  WS02006239WS02006238    1.00   0.00  0.00  0.00  1.00  0.00  0.00  0.00  0.05  0.00
  WS02006238WS02006235    1.00   0.00  0.00  0.00  1.00  0.00  0.00  0.00  0.00  0.00
  WS02006235WS02006234    1.00   0.00  0.00  0.00  0.95  0.00  0.05  0.00  0.00  0.00
  WS02006234WS02006232    1.00   0.00  0.00  0.00  1.00  0.00  0.00  0.00  0.11  0.00
  WS02006232WS02006231    1.00   0.00  0.00  0.00  0.99  0.00  0.01  0.00  0.00  0.00
  WS02006231WS02006230    1.00   0.00  0.00  0.00  0.51  0.00  0.49  0.00  0.00  0.00
  WS02006230WS02006229    1.00   0.00  0.00  0.00  0.98  0.00  0.00  0.02  0.01  0.00
  WS02006228WS02006109    1.00   0.00  0.00  0.00  1.00  0.00  0.00  0.00  0.00  0.00
  WS02006116WS02004401    1.00   0.02  0.00  0.00  0.98  0.00  0.00  0.00  0.00  0.00
  WS02006115WS02006116    1.00   0.02  0.00  0.00  0.97  0.00  0.00  0.01  0.01  0.00
  WS02006113WS02006111    1.00   0.02  0.00  0.00  0.00  0.98  0.00  0.00  0.13  0.00
  WS02006112WS02006115    1.00   0.02  0.00  0.00  0.98  0.00  0.00  0.00  0.00  0.00
  WS02006111WS02006112    1.00   0.02  0.00  0.00  0.98  0.00  0.00  0.00  0.98  0.00
  WS02006110WS02006113    1.00   0.02  0.00  0.00  0.98  0.00  0.00  0.00  0.00  0.00
  WS02006109WS02006110    1.00   0.00  0.02  0.00  0.98  0.00  0.00  0.00  0.00  0.00
  WS02004411WS02004412    1.00   0.05  0.00  0.00  0.95  0.00  0.00  0.00  0.00  0.00
  WS02004401WS02004402    1.00   0.02  0.00  0.00  0.98  0.00  0.00  0.00  0.00  0.00
  WS02004413WS02003067    1.00   0.06  0.01  0.00  0.00  0.00  0.93  0.00  0.00  0.00
  WS02004412WS02004413    1.00   0.05  0.00  0.00  0.95  0.00  0.00  0.00  0.03  0.00
  WS02004410WS02004411    1.00   0.05  0.00  0.00  0.95  0.00  0.00  0.00  0.01  0.00
  WS02004409WS02004410    1.00   0.05  0.00  0.00  0.95  0.00  0.00  0.00  0.00  0.00
  WS02004407WS02004409    1.00   0.05  0.00  0.00  0.95  0.00  0.00  0.00  0.80  0.00
  WS02004406WS02004407    1.00   0.00  0.05  0.00  0.95  0.00  0.00  0.00  0.00  0.00
  WS02004405WS02004406    1.00   0.00  0.00  0.00  1.00  0.00  0.00  0.00  0.02  0.00
  WS02004404WS02004405    1.00   0.00  0.00  0.00  1.00  0.00  0.00  0.00  0.00  0.00
  WS02004403WS02004404    1.00   0.00  0.02  0.00  0.98  0.00  0.00  0.00  0.02  0.00
  WS02004402WS02004403    1.00   0.02  0.00  0.00  0.98  0.00  0.00  0.00  0.00  0.00
  WS02004139WS02001211    1.00   0.00  0.00  0.00  0.99  0.00  0.01  0.00  0.00  0.00
  WS02004138WS02004139    1.00   0.00  0.00  0.00  0.98  0.01  0.00  0.00  1.00  0.00
  WS02003067WS02003066    1.00   0.07  0.00  0.00  0.93  0.00  0.00  0.00  0.00  0.00
  WS02001213WS02003059    1.00   0.00  0.01  0.00  0.99  0.00  0.00  0.00  0.00  0.00
  WS02001212WS02001213    1.00   0.01  0.00  0.00  0.82  0.00  0.17  0.00  0.00  0.00
  WS02001211WS02001212    1.00   0.00  0.01  0.00  0.99  0.00  0.00  0.00  0.00  0.00
  WS02003072WS02003073    1.00   0.00  0.00  0.00  0.00  0.00  0.00  1.00  0.00  0.00
  WS02003069WS02003072    1.00   0.00  0.00  0.00  0.99  0.01  0.00  0.00  0.33  0.00
  WS02003060WS02003069    1.00   0.00  0.00  0.00  0.98  0.02  0.00  0.00  0.19  0.00
  WS02003059WS02003060    1.00   0.00  0.00  0.00  0.99  0.01  0.00  0.00  0.02  0.00
  HS02004901HS02004770    1.00   0.04  0.00  0.00  0.96  0.00  0.00  0.00  0.03  0.00
  HS02004876HS02004881    1.00   0.02  0.00  0.00  0.98  0.00  0.00  0.00  0.00  0.00
  HS02004870HS02004876    1.00   0.01  0.00  0.00  0.99  0.00  0.00  0.00  0.95  0.00
  HS02004842HS02004848    1.00   0.00  0.04  0.00  0.96  0.00  0.00  0.00  0.69  0.00
  HS02004837HS02004842    1.00   0.00  0.00  0.00  0.99  0.01  0.00  0.00  0.11  0.00
  HS02004830HS02004837    1.00   0.00  0.00  0.00  1.00  0.00  0.00  0.00  0.99  0.00
  HS02004824HS02004830    1.00   0.00  0.00  0.00  1.00  0.00  0.00  0.00  0.00  0.00
  HS02004817HS02004824    1.00   0.00  0.00  0.00  1.00  0.00  0.00  0.00  1.00  0.00
  HS02004770HS02004777    1.00   0.00  0.04  0.00  0.96  0.00  0.00  0.00  0.07  0.00
  HS02004799HS02004480    1.00   0.00  0.02  0.00  0.95  0.00  0.03  0.00  0.00  0.00
  HS02004792HS02004799    1.00   0.00  0.00  0.00  0.98  0.02  0.00  0.00  0.98  0.00
  HS02004788HS02004792    1.00   0.00  0.00  0.00  0.98  0.02  0.00  0.00  0.98  0.00
  HS02004785HS02004788    1.00   0.00  0.00  0.00  1.00  0.00  0.00  0.00  0.00  0.00
  HS02004777HS02004785    1.00   0.00  0.00  0.00  1.00  0.00  0.00  0.00  0.21  0.00
  HS02004480HS02004478    1.00   0.04  0.00  0.00  0.72  0.00  0.00  0.24  0.00  0.00
  HS02004479HS02004480    1.00   0.02  0.00  0.00  0.98  0.00  0.00  0.00  0.16  0.00
  HS02004862HS02004870    1.00   0.00  0.00  0.00  1.00  0.00  0.00  0.00  0.05  0.00
  HS02004848HS02004852    1.00   0.04  0.00  0.00  0.96  0.00  0.00  0.00  0.71  0.00
  HS02004856HS02004862    1.00   0.00  0.07  0.00  0.93  0.00  0.00  0.00  0.74  0.00
  HS02004852HS02004856    1.00   0.04  0.01  0.00  0.95  0.00  0.00  0.00  0.83  0.00
  HS02004802HS02004478    1.00   0.04  0.01  0.00  0.95  0.00  0.00  0.00  0.01  0.00
  HS02004478WS02006287    1.00   0.05  0.00  0.00  0.87  0.08  0.00  0.00  0.77  0.00
  HS02004817HS02004807    1.00   0.00  0.04  0.00  0.96  0.00  0.00  0.00  0.00  0.00
  HS02004807HS02004802    1.00   0.04  0.00  0.00  0.96  0.00  0.00  0.00  0.01  0.00
  YS02001759YS02001757    1.00   0.00  0.00  0.00  1.00  0.00  0.00  0.00  0.17  0.00
  YS02001762YS02001759    1.00   0.00  0.00  0.00  1.00  0.00  0.00  0.00  0.05  0.00
  YS02001765YS02001762    1.00   0.00  0.00  0.00  1.00  0.00  0.00  0.00  0.22  0.00
  YS02001770YS02001767    1.00   0.00  0.00  0.00  1.00  0.00  0.00  0.00  0.00  0.00
  YS02001774YS02001770    1.00   0.00  0.05  0.00  0.95  0.00  0.00  0.00  0.07  0.00
  YS02001779YS02001774    1.00   0.00  0.00  0.00  1.00  0.00  0.00  0.00  0.26  0.00
  YS02001649YS02001757    1.00   0.00  0.00  0.00  1.00  0.00  0.00  0.00  0.19  0.00
  YS02001767YS02001765    1.00   0.00  0.00  0.00  1.00  0.00  0.00  0.00  0.01  0.00
  YS02006561YS02001783    1.00   0.07  0.00  0.00  0.00  0.93  0.00  0.00  0.73  0.00
  YS02001783YS02001784    1.00   0.00  0.07  0.00  0.93  0.00  0.00  0.00  0.00  0.00
  YS02001784YS02001785    1.00   0.00  0.00  0.00  1.00  0.00  0.00  0.00  0.25  0.00
  YS02001788YS02001790    1.00   0.00  0.00  0.00  0.07  0.93  0.00  0.00  0.77  0.00
  YS02001790YS02001791    1.00   0.00  0.00  0.00  0.02  0.98  0.00  0.00  0.54  0.00
  YS02001791YS02001793    1.00   0.00  0.00  0.00  0.00  1.00  0.00  0.00  0.00  0.00
  YS02001910YS02001907    1.00   0.00  0.00  0.00  0.98  0.00  0.00  0.02  0.13  0.00
  YS02001786YS02001788    1.00   0.00  0.00  0.00  0.07  0.93  0.00  0.00  0.00  0.00
  YS02001915YS02001910    1.00   0.00  0.00  0.00  1.00  0.00  0.00  0.00  0.24  0.00
  YS02001918YS02001915    1.00   0.00  0.01  0.00  0.99  0.00  0.00  0.00  0.81  0.00
  YS02001923YS02001920    1.00   0.00  0.00  0.00  1.00  0.00  0.00  0.00  1.00  0.00
  YS02001926YS02001923    1.00   0.00  0.03  0.00  0.00  0.00  0.97  0.00  0.00  0.00
  YS02001929YS02001926    1.00   0.00  0.04  0.00  0.96  0.00  0.00  0.00  0.87  0.00
  YS02001920YS02001918    1.00   0.00  0.01  0.00  0.99  0.00  0.00  0.00  0.00  0.00
  YS02001629YS02163301    1.00   0.06  0.00  0.00  0.94  0.00  0.00  0.00  0.00  0.00
  YS02001619YS02001622    1.00   0.04  0.00  0.00  0.96  0.00  0.00  0.00  0.00  0.00
  YS02001622YS02001625    1.00   0.04  0.00  0.00  0.96  0.00  0.00  0.00  0.13  0.00
  YS02001625YS02001629    1.00   0.04  0.03  0.00  0.91  0.00  0.02  0.00  0.00  0.00
  YS02163301YS02001633    1.00   0.00  0.06  0.00  0.94  0.00  0.00  0.00  0.00  0.00
  YS02163601YS02164001    1.00   0.00  0.03  0.00  0.97  0.00  0.00  0.00  0.00  0.00
  YS02164001YS02001641    1.00   0.01  0.02  0.00  0.97  0.00  0.00  0.00  0.07  0.00
  YS02001641YS02001644    1.00   0.00  0.01  0.00  0.99  0.00  0.00  0.00  0.00  0.00
  YS02001647YS02001649    1.00   0.00  0.06  0.00  0.93  0.00  0.00  0.00  0.01  0.00
  YS02006553YS02006556    1.00   0.02  0.00  0.00  0.98  0.00  0.00  0.00  0.03  0.00
  YS02006556YS02006558    1.00   0.00  0.01  0.00  0.99  0.00  0.00  0.00  0.00  0.00
  YSB6556YSB1171          1.00   0.02  0.02  0.00  0.96  0.00  0.00  0.00  0.00  0.00
  YS02001907YS02006553    1.00   0.00  0.02  0.00  0.98  0.00  0.00  0.00  0.00  0.00
  YS02006558YS02006561    1.00   0.07  0.00  0.00  0.00  0.93  0.00  0.00  0.72  0.00
  YS02001633YS02163601    1.00   0.00  0.01  0.00  0.99  0.00  0.00  0.00  0.20  0.00
  YS02001644YS02001647    1.00   0.00  0.07  0.00  0.93  0.00  0.00  0.00  0.00  0.00
  YS02001745YS02001748    1.00   0.00  0.00  0.00  0.85  0.02  0.00  0.13  0.67  0.00
  YS02001748YS02001751    1.00   0.00  0.00  0.00  0.97  0.03  0.00  0.00  0.24  0.00
  YS02001751YS02001754    1.00   0.00  0.00  0.00  0.93  0.00  0.00  0.07  0.02  0.00
  YS02001754YS02001757    1.00   0.00  0.00  0.00  0.99  0.01  0.00  0.00  0.26  0.00
  YS02001882YS02001884    1.00   0.06  0.00  0.00  0.94  0.00  0.00  0.00  0.00  0.00
  YS02001884YS02001887    1.00   0.03  0.01  0.00  0.96  0.00  0.00  0.00  0.00  0.00
  YS02001890YS02001895    1.00   0.00  0.06  0.00  0.94  0.00  0.00  0.00  0.00  0.00
  YS02001895YS02001898    1.00   0.06  0.00  0.00  0.93  0.00  0.01  0.00  0.00  0.00
  YS02001898YS02001901    1.00   0.06  0.00  0.00  0.94  0.00  0.00  0.00  0.02  0.00
  YS02001901YS02001904    1.00   0.06  0.00  0.00  0.94  0.00  0.00  0.00  0.00  0.00
  YS02001904YS02001907    1.00   0.00  0.05  0.00  0.94  0.00  0.00  0.00  0.00  0.00
  YS02001887YS02001890    1.00   0.00  0.00  0.00  0.98  0.00  0.02  0.00  0.00  0.00
  YS02001652YS02001649    1.00   0.00  0.00  0.00  1.00  0.00  0.00  0.00  0.26  0.00
  YS02001655YS02001652    1.00   0.00  0.00  0.00  0.93  0.00  0.00  0.07  0.02  0.00
  YS02001658YS02001655    1.00   0.00  0.05  0.00  0.92  0.03  0.00  0.00  0.11  0.00
  YS02001661YS02001658    1.00   0.05  0.00  0.00  0.85  0.10  0.00  0.00  0.72  0.00
  YS02001664YS02001661    1.00   0.04  0.00  0.00  0.74  0.22  0.00  0.00  0.86  0.00
  YSB1154YSB6556          1.00   0.04  0.00  0.00  0.96  0.00  0.00  0.00  0.02  0.00
  YSB1174YSB1171          1.00   0.03  0.01  0.00  0.97  0.00  0.00  0.00  0.00  0.00
  YSB1171HS02004479       1.00   0.02  0.00  0.00  0.97  0.00  0.00  0.00  0.13  0.00
  HS02004881HS02006253    1.00   0.03  0.00  0.00  0.73  0.02  0.00  0.22  0.54  0.00
  YS02001793JiankangQianchi    1.00   0.00  0.00  0.00  0.14  0.86  0.00  0.00  0.19  0.00
  YS02001757CaochengTiaoxuchi    1.00   0.00  0.09  0.00  0.91  0.00  0.00  0.00  0.00  0.00
  WSF200WS02003060        1.00   0.00  0.08  0.00  0.44  0.48  0.00  0.00  0.14  0.00
  1                       1.00   0.00  0.00  0.00  0.00  1.00  0.00  0.00  0.42  0.00
  2                       1.00   0.75  0.00  0.00  0.00  0.25  0.00  0.00  0.06  0.00
  3                       1.00   0.16  0.00  0.00  0.00  0.84  0.00  0.00  0.07  0.00
  4                       1.00   1.00  0.00  0.00  0.00  0.00  0.00  0.00  0.00  0.00
  
  
  *************************
  Conduit Surcharge Summary
  *************************
  
  ----------------------------------------------------------------------------
                                                           Hours        Hours 
                         --------- Hours Full --------   Above Full   Capacity
  Conduit                Both Ends  Upstream  Dnstream   Normal Flow   Limited
  ----------------------------------------------------------------------------
  WS02006229WS02006228        1.24      1.41      1.24      3.98         1.24
  WS02006256WS02006235        5.64      5.64      6.70      3.27         0.01
  WS02006252WS02006251        0.99      0.99      1.56      1.41         0.01
  WS02006251WS02006249        0.01      0.01      0.01      0.99         0.01
  WS02006249WS02006248        0.01      0.01      0.01      3.83         0.01
  WS02006247WS02006245        0.01      0.01      0.01      4.33         0.01
  WS02006245WS02006243        0.01      0.01      0.01      0.02         0.01
  WS02006243WS02006242        0.01      0.01      0.73      0.01         0.01
  WS02006242WS02006240        0.23      0.23      1.07      1.55         0.01
  WS02006240WS02006239        0.26      0.26      0.29      0.06         0.01
  WS02006239WS02006238        0.95      0.95      1.04      0.16         0.12
  WS02006238WS02006235        0.91      0.91      1.32      0.01         0.01
  WS02006235WS02006234        0.24      0.24      0.66      5.66         0.01
  WS02006234WS02006232        0.31      0.31      1.41      0.01         0.01
  WS02006232WS02006231        0.01      0.01      1.41      0.01         0.01
  WS02006231WS02006230        0.01      0.01      0.01      5.63         0.01
  WS02006230WS02006229        2.39      3.19      2.39      5.69         2.39
  WS02006228WS02006109        1.33      1.84      1.33      4.84         1.33
  WS02006112WS02006115        0.01      0.01      0.26      0.01         0.01
  WS02006111WS02006112        0.01      0.01      4.13      0.01         0.01
  WS02006110WS02006113        0.01      0.01      1.63      0.01         0.01
  WS02006109WS02006110        0.01      0.01      1.84      0.01         0.01
  WS02004405WS02004406        0.01      0.01      0.01      0.04         0.01
  WS02004404WS02004405        0.01      0.01      0.01      5.61         0.01
  WS02003072WS02003073        0.01      0.01      0.01      4.38         0.01
  YS02001759YS02001757        4.72      4.72      5.30      0.01         0.01
  YS02001762YS02001759        4.09      4.09      4.72      0.01         0.01
  YS02001765YS02001762        2.13      2.13      4.09      0.01         0.01
  YS02001770YS02001767        0.43      0.44      0.56      0.01         0.06
  YS02001774YS02001770        0.11      0.11      3.27      0.01         0.01
  YS02001779YS02001774        0.01      0.01      3.27      0.01         0.01
  YS02001649YS02001757        4.41      4.41      5.30      0.01         0.01
  YS02001767YS02001765        0.56      0.56      2.13      0.01         0.01
  YS02001629YS02163301        0.01      0.01      0.23      0.01         0.01
  YS02163301YS02001633        0.23      0.23      2.11      0.01         0.01
  YS02163601YS02164001        1.88      1.88      4.28      0.01         0.01
  YS02164001YS02001641        1.88      1.88      2.50      0.01         0.01
  YS02001641YS02001644        2.47      2.50      2.73      0.01         0.10
  YS02001647YS02001649        0.01      0.01      4.41      0.01         0.01
  YS02001633YS02163601        0.95      0.95      4.28      0.01         0.01
  YS02001644YS02001647        0.01      0.01      2.73      0.01         0.01
  YS02001754YS02001757        0.01      0.01      5.30      0.01         0.01
  YS02001652YS02001649        0.01      0.01      4.41      0.01         0.01
  YS02001793JiankangQianchi        0.01      0.01      0.46      0.01         0.01
  YS02001757CaochengTiaoxuchi        0.01      0.01      5.30      0.01         0.01
  3                           0.01      0.01      0.01      0.01         0.01
  
  
  ***************
  Pumping Summary
  ***************
  
  ---------------------------------------------------------------------------------------------------------
                                                  Min       Avg       Max     Total     Power    % Time Off
                        Percent   Number of      Flow      Flow      Flow    Volume     Usage    Pump Curve
  Pump                 Utilized   Start-Ups       LPS       LPS       LPS  10^6 ltr     Kw-hr    Low   High
  ---------------------------------------------------------------------------------------------------------
  CC-Pump-1               62.12           4      0.00    148.53    200.00     2.521      9.06    0.0   25.0
  CC-Pump-2               45.10           6      0.00    128.22    200.00     1.621      5.95    0.0   24.5
  JK-Pump-1               82.98           3      0.00    131.66    300.00     2.390     44.49    0.0    0.0
  JK-Pump-2               78.72           6      0.00    118.23    300.00     2.090     40.43    0.0    0.0
  XR-Pump-1               61.69           8      0.00     65.22     95.00     1.168      6.88    0.0    0.0
  XR-Pump-2               61.71           6      0.00     60.48     95.00     1.112      7.51    0.0    0.0
  XR-Pump-3               82.95           6      0.00     63.77     95.00     1.567      9.14    0.0    0.0
  XR-Pump-4               55.30           6      0.00     69.33     95.00     1.026      5.12    0.0    0.0
  

  Analysis begun on:  Tue Dec 21 12:28:55 2021
  Analysis ended on:  Tue Dec 21 12:28:58 2021
  Total elapsed time: 00:00:03