
  EPA STORM WATER MANAGEMENT MODEL - VERSION 5.1 (Build 5.3.0.dev0)
  --------------------------------------------------------------

  WARNING 04: minimum elevation drop used for Conduit WS02004404WS02004405
  WARNING 03: negative offset ignored for Link YS02001904YS02001907
  
  *********************************************************
  NOTE: The summary statistics displayed in this report are
  based on results found at every computational time step,  
  not just on results from each reporting time step.
  *********************************************************
  
  ****************
  Analysis Options
  ****************
  Flow Units ............... LPS
  Process Models:
    Rainfall/Runoff ........ YES
    RDII ................... NO
    Snowmelt ............... NO
    Groundwater ............ NO
    Flow Routing ........... YES
    Ponding Allowed ........ NO
    Water Quality .......... NO
  Infiltration Method ...... HORTON
  Flow Routing Method ...... DYNWAVE
  Surcharge Method ......... EXTRAN
  Starting Date ............ 08/28/2015 08:00:00
  Ending Date .............. 08/28/2015 15:50:00
  Antecedent Dry Days ...... 8.0
  Report Time Step ......... 00:01:00
  Wet Time Step ............ 00:01:00
  Dry Time Step ............ 00:01:00
  Routing Time Step ........ 5.00 sec
  Variable Time Step ....... YES
  Maximum Trials ........... 8
  Number of Threads ........ 4
  Head Tolerance ........... 0.001500 m
  
  
  **************************        Volume         Depth
  Runoff Quantity Continuity     hectare-m            mm
  **************************     ---------       -------
  Total Precipitation ......         2.016         4.413
  Evaporation Loss .........         0.000         0.000
  Infiltration Loss ........         0.499         1.092
  Surface Runoff ...........         0.702         1.536
  Final Storage ............         0.816         1.786
  Continuity Error (%) .....        -0.017
  
  
  **************************        Volume        Volume
  Flow Routing Continuity        hectare-m      10^6 ltr
  **************************     ---------     ---------
  Dry Weather Inflow .......         0.616         6.165
  Wet Weather Inflow .......         0.701         7.012
  Groundwater Inflow .......         0.000         0.000
  RDII Inflow ..............         0.000         0.000
  External Inflow ..........         0.102         1.024
  External Outflow .........         1.320        13.196
  Flooding Loss ............         0.052         0.518
  Evaporation Loss .........         0.000         0.000
  Exfiltration Loss ........         0.000         0.000
  Initial Stored Volume ....         0.076         0.761
  Final Stored Volume ......         0.236         2.363
  Continuity Error (%) .....        -7.463
  
  
  *************************
  Highest Continuity Errors
  *************************
  Node JK-storage (-42.91%)
  Node HS02004842 (35.34%)
  Node YS02001884 (29.61%)
  Node YS02001774 (16.62%)
  Node YSB1171 (9.89%)
  
  
  ***************************
  Time-Step Critical Elements
  ***************************
  Link WS02006252WS02006251 (60.51%)
  Link 3 (26.49%)
  Link WS02006238WS02006235 (4.81%)
  Link WS02006280WS02006229 (3.20%)
  
  
  ********************************
  Highest Flow Instability Indexes
  ********************************
  Link WS02006113WS02006111 (51)
  Link WS02006111WS02006112 (17)
  Link YS02001754YS02001757 (4)
  Link YS02001751YS02001754 (3)
  Link YS02001652YS02001649 (3)
  
  
  *************************
  Routing Time Step Summary
  *************************
  Minimum Time Step           :     0.42 sec
  Average Time Step           :     1.02 sec
  Maximum Time Step           :     5.00 sec
  Percent in Steady State     :    -0.00
  Average Iterations per Step :     2.01
  Percent Not Converging      :     0.05
  
  
  ***************************
  Subcatchment Runoff Summary
  ***************************
  
  ------------------------------------------------------------------------------------------------------------------------------
                            Total      Total      Total      Total     Imperv       Perv      Total       Total     Peak  Runoff
                           Precip      Runon       Evap      Infil     Runoff     Runoff     Runoff      Runoff   Runoff   Coeff
  Subcatchment                 mm         mm         mm         mm         mm         mm         mm    10^6 ltr      LPS
  ------------------------------------------------------------------------------------------------------------------------------
  sub0                       4.41       0.00       0.00       0.31       2.84       0.00       2.84        0.00     0.86   0.643
  sub1                       4.41       0.00       0.00       0.49       2.67       0.00       2.67        0.02     4.39   0.606
  sub2                       4.41       0.00       0.00       1.63       1.88       0.00       1.88        0.02     3.87   0.425
  sub3                       4.41       0.00       0.00       1.63       1.84       0.00       1.84        0.04     7.93   0.418
  sub4                       4.41       0.00       0.00       0.49       2.55       0.00       2.55        0.05     8.86   0.577
  sub5                       4.41       0.00       0.00       0.31       2.79       0.00       2.79        0.03     7.80   0.633
  sub7                       4.41       0.00       0.00       0.40       2.76       0.00       2.76        0.01     2.77   0.626
  sub8                       4.41       0.00       0.00       0.40       2.75       0.00       2.75        0.02     4.88   0.624
  sub9                       4.41       0.00       0.00       0.40       2.75       0.00       2.75        0.01     3.61   0.623
  sub10                      4.41       0.00       0.00       0.35       2.77       0.00       2.77        0.03     7.80   0.628
  sub11                      4.41       0.00       0.00       0.35       2.79       0.00       2.79        0.03     9.19   0.631
  sub12                      4.41       0.00       0.00       0.57       2.65       0.00       2.65        0.02     7.85   0.601
  sub14                      4.41       0.00       0.00       0.40       2.75       0.00       2.75        0.03     7.06   0.623
  sub15                      4.41       0.00       0.00       1.32       2.11       0.00       2.11        0.04     9.57   0.479
  sub16                      4.41       0.00       0.00       1.46       2.04       0.00       2.04        0.02     6.88   0.462
  sub17                      4.41       0.00       0.00       1.41       2.07       0.00       2.07        0.02     5.55   0.468
  sub22                      4.41       0.00       0.00       1.90       1.73       0.00       1.73        0.11    31.46   0.391
  sub23                      4.41       0.00       0.00       1.63       1.91       0.00       1.91        0.09    26.82   0.433
  sub60                      4.41       0.00       0.00       0.53       1.68       0.00       1.68        0.51    44.03   0.380
  sub61                      4.41       0.00       0.00       0.75       1.84       0.00       1.84        0.57    56.15   0.418
  sub62                      4.41       0.00       0.00       0.35       1.96       0.00       1.96        0.60    57.26   0.444
  sub63                      4.41       0.00       0.00       1.28       1.66       0.00       1.66        0.50    52.42   0.376
  sub64                      4.41       0.00       0.00       0.66       1.60       0.00       1.60        0.49    41.73   0.363
  sub65                      4.41       0.00       0.00       0.57       1.62       0.00       1.62        0.50    42.26   0.366
  sub66                      4.41       0.00       0.00       1.28       1.41       0.00       1.41        0.43    38.56   0.319
  sub67                      4.41       0.00       0.00       0.35       2.21       0.00       2.21        0.68    73.71   0.501
  sub68                      4.41       0.00       0.00       0.62       1.97       0.00       1.97        0.61    62.09   0.447
  sub69                      4.41       0.00       0.00       0.66       2.19       0.00       2.19        0.51    61.78   0.495
  sub70                      4.41       2.23       0.00       2.26       2.53       0.00       2.53        0.58    46.38   0.381
  sub71                      4.41       0.00       0.00       0.35       1.86       0.00       1.86        0.44    39.73   0.421
  sub72                      4.41       0.00       0.00       0.31       1.24       0.00       1.24        0.25    17.90   0.281
  sub73                      4.41       2.46       0.00       2.34       2.47       0.00       2.47        0.58    39.55   0.360
  sub74                      4.41       0.00       0.00       3.31       0.66       0.00       0.66        0.27    34.51   0.150
  
  
  ******************
  Node Depth Summary
  ******************
  
  ---------------------------------------------------------------------------------
                                 Average  Maximum  Maximum  Time of Max    Reported
                                   Depth    Depth      HGL   Occurrence   Max Depth
  Node                 Type       Meters   Meters   Meters  days hr:min      Meters
  ---------------------------------------------------------------------------------
  WS02001211           JUNCTION     0.61     0.74     5.58     0  02:31        0.74
  WS02001212           JUNCTION     0.34     0.44     5.51     0  02:31        0.44
  WS02001213           JUNCTION     0.57     0.66     5.42     0  02:32        0.66
  WS02003069           JUNCTION     0.39     0.50     5.09     0  02:57        0.50
  WS02003072           JUNCTION     0.46     0.57     4.94     0  02:58        0.57
  WS02003073           JUNCTION     0.27     0.34     4.41     0  02:58        0.34
  WS02003060           JUNCTION     0.35     0.44     5.38     0  02:57        0.44
  WS02003066           JUNCTION     0.21     0.28     5.83     0  02:59        0.28
  WS02003059           JUNCTION     0.63     0.72     5.41     0  02:55        0.72
  WS02003067           JUNCTION     0.53     0.67     5.99     0  02:59        0.67
  WS02004401           JUNCTION     0.62     0.80     6.80     0  02:56        0.80
  WS02004402           JUNCTION     0.65     0.83     6.79     0  02:56        0.83
  WS02004403           JUNCTION     0.68     0.84     6.77     0  02:56        0.84
  WS02004404           JUNCTION     0.75     0.92     6.77     0  02:56        0.92
  WS02004406           JUNCTION     0.76     0.92     6.75     0  02:56        0.92
  WS02004409           JUNCTION     0.44     0.62     6.39     0  02:58        0.62
  WS02004410           JUNCTION     0.46     0.63     6.35     0  02:58        0.63
  WS02004411           JUNCTION     0.48     0.64     6.32     0  02:58        0.64
  WS02004412           JUNCTION     0.49     0.66     6.30     0  02:59        0.66
  WS02004413           JUNCTION     0.65     0.82     6.29     0  02:59        0.82
  WS02004405           JUNCTION     0.75     0.91     6.76     0  02:56        0.91
  WS02006109           JUNCTION     0.70     0.90     7.52     0  02:52        0.90
  WS02006110           JUNCTION     0.70     0.87     7.46     0  02:52        0.87
  WS02006111           JUNCTION     0.20     0.27     6.98     0  02:52        0.27
  WS02006112           JUNCTION     0.78     0.98     6.87     0  02:55        0.98
  WS02006113           JUNCTION     0.31     0.42     7.32     0  02:52        0.42
  WS02006115           JUNCTION     0.51     0.69     6.83     0  02:55        0.69
  WS02006116           JUNCTION     0.59     0.77     6.81     0  02:55        0.77
  WS02006230           JUNCTION     0.65     0.93     7.68     0  02:52        0.93
  WS02006231           JUNCTION     0.43     0.63     7.75     0  02:52        0.63
  WS02006232           JUNCTION     0.57     0.77     7.81     0  02:52        0.77
  WS02006234           JUNCTION     0.48     0.72     7.87     0  02:52        0.72
  WS02006235           JUNCTION     0.51     0.76     7.92     0  02:51        0.76
  WS02006238           JUNCTION     0.54     0.78     7.93     0  02:51        0.78
  WS02006240           JUNCTION     0.43     0.71     8.01     0  02:51        0.71
  WS02006242           JUNCTION     0.48     0.78     8.05     0  02:51        0.78
  WS02006243           JUNCTION     0.37     0.67     8.09     0  02:51        0.67
  WS02006245           JUNCTION     0.35     0.64     8.13     0  02:51        0.64
  WS02006247           JUNCTION     0.37     0.65     8.15     0  02:51        0.65
  WS02006248           JUNCTION     0.32     0.59     8.17     0  02:51        0.59
  WS02006249           JUNCTION     0.36     0.60     8.20     0  03:13        0.60
  WS02006239           JUNCTION     0.49     0.76     7.97     0  02:51        0.76
  WS02006251           JUNCTION     0.35     0.63     8.30     0  03:14        0.63
  WS02006252           JUNCTION     0.32     0.59     8.83     0  03:40        0.58
  WS02006253           JUNCTION     0.37     0.65     8.30     0  03:13        0.65
  WS02006256           JUNCTION     0.97     2.35     9.28     0  00:00        1.19
  WS02004138           JUNCTION     0.14     0.19     7.44     0  01:40        0.19
  WS02004407           JUNCTION     0.20     0.28     6.59     0  02:57        0.28
  WS02006228           JUNCTION     0.69     0.92     7.57     0  02:52        0.92
  WS02006229           JUNCTION     0.66     0.91     7.60     0  02:52        0.91
  WS02006280           JUNCTION     0.05     0.11     8.38     0  02:24        0.11
  WS02006284           JUNCTION     0.34     0.44     8.84     0  02:24        0.44
  WS02006287           JUNCTION     0.07     0.17     9.12     0  02:24        0.17
  WSF200               JUNCTION     0.19     0.29     5.52     0  02:59        0.29
  HS02004901           JUNCTION     0.10     0.19    10.01     0  02:22        0.19
  HS02004881           JUNCTION     0.00     0.02     9.05     0  02:23        0.02
  HS02004876           JUNCTION     0.03     0.09     9.12     0  02:23        0.09
  HS02004870           JUNCTION     0.01     0.03     9.32     0  02:24        0.03
  HS02004862           JUNCTION     0.01     0.03     9.42     0  02:25        0.03
  HS02004856           JUNCTION     0.07     0.09     9.52     0  02:24        0.09
  HS02004852           JUNCTION     0.01     0.02     9.53     0  02:25        0.02
  HS02004848           JUNCTION     0.00     0.02     9.62     0  02:22        0.02
  HS02004842           JUNCTION     0.33     0.35     9.62     0  02:23        0.35
  HS02004837           JUNCTION     0.02     0.04     9.62     0  02:22        0.04
  HS02004830           JUNCTION     0.03     0.05     9.52     0  02:23        0.05
  HS02004824           JUNCTION     0.02     0.03     9.43     0  02:27        0.03
  HS02004817           JUNCTION     0.42     0.49     9.34     0  02:25        0.49
  HS02004807           JUNCTION     0.11     0.17     9.34     0  02:25        0.17
  HS02004802           JUNCTION     0.14     0.20     9.33     0  02:25        0.20
  HS02004799           JUNCTION     0.09     0.20     9.41     0  02:22        0.20
  HS02004792           JUNCTION     0.02     0.07     9.59     0  02:22        0.07
  HS02004788           JUNCTION     0.02     0.05     9.95     0  02:23        0.05
  HS02004785           JUNCTION     0.03     0.10    10.00     0  02:23        0.10
  HS02004777           JUNCTION     0.13     0.21    10.01     0  02:22        0.21
  HS02004770           JUNCTION     0.10     0.18    10.01     0  02:22        0.18
  HS02004480           JUNCTION     0.06     0.15     9.39     0  02:23        0.15
  HS02004479           JUNCTION     0.09     0.19     9.39     0  02:23        0.19
  HS02004478           JUNCTION     0.05     0.10     9.32     0  02:24        0.10
  YS02001745           JUNCTION     0.06     0.09     7.61     0  03:01        0.09
  YS02001748           JUNCTION     0.09     0.16     7.23     0  05:57        0.15
  YS02001751           JUNCTION     0.26     0.37     7.25     0  05:57        0.37
  YS02001754           JUNCTION     0.51     0.68     7.28     0  05:58        0.67
  YS02001762           JUNCTION     0.70     0.84     7.24     0  05:55        0.84
  YS02001765           JUNCTION     0.65     0.80     7.25     0  05:57        0.80
  YS02001767           JUNCTION     0.62     0.75     7.24     0  05:56        0.75
  YS02001770           JUNCTION     0.61     0.74     7.23     0  05:56        0.74
  YS02001774           JUNCTION     0.68     0.81     7.23     0  05:57        0.81
  YS02001779           JUNCTION     0.43     0.55     7.23     0  05:57        0.55
  YS02001882           JUNCTION     0.23     0.35     7.06     0  03:01        0.35
  YS02001884           JUNCTION     0.33     0.45     7.06     0  03:01        0.45
  YS02001759           JUNCTION     0.73     0.88     7.24     0  05:57        0.88
  YS02001887           JUNCTION     0.41     0.53     7.06     0  03:01        0.53
  YS02001890           JUNCTION     0.44     0.56     7.06     0  03:01        0.56
  YS02001898           JUNCTION     0.21     0.31     7.05     0  03:01        0.31
  YS02001901           JUNCTION     0.32     0.44     7.05     0  03:02        0.44
  YS02001904           JUNCTION     0.30     0.41     7.04     0  03:02        0.41
  YS02001907           JUNCTION     0.63     0.76     7.05     0  03:01        0.76
  YS02001910           JUNCTION     0.42     0.54     7.05     0  03:01        0.54
  YS02001915           JUNCTION     0.22     0.33     7.04     0  03:01        0.33
  YS02001918           JUNCTION     0.06     0.08     7.14     0  03:04        0.08
  YS02001619           JUNCTION     0.22     0.30     7.23     0  05:57        0.30
  YS02001629           JUNCTION     0.56     0.68     7.23     0  05:59        0.68
  YS02001641           JUNCTION     0.67     0.80     7.24     0  05:57        0.80
  YS02001644           JUNCTION     0.67     0.80     7.23     0  05:57        0.80
  YS02001652           JUNCTION     0.52     0.65     7.25     0  05:55        0.65
  YS02001655           JUNCTION     0.29     0.39     7.24     0  05:56        0.39
  YS02001920           JUNCTION     0.15     0.17     7.18     0  03:03        0.17
  YS02001923           JUNCTION     0.05     0.06     7.32     0  03:02        0.06
  YS02001926           JUNCTION     0.12     0.14     7.59     0  03:02        0.14
  YS02001929           JUNCTION     0.05     0.07     7.76     0  03:01        0.07
  YS02001658           JUNCTION     0.07     0.10     7.24     0  02:57        0.10
  YS02001661           JUNCTION     0.13     0.17     7.57     0  02:57        0.17
  YS02001664           JUNCTION     0.06     0.09     8.01     0  02:57        0.09
  YS02001622           JUNCTION     0.24     0.33     7.23     0  05:58        0.33
  YS02001633           JUNCTION     0.65     0.78     7.23     0  05:57        0.78
  YS02001649           JUNCTION     0.71     0.84     7.23     0  05:57        0.84
  YS02001757           JUNCTION     0.83     0.99     7.25     0  05:57        0.99
  YS02001895           JUNCTION     0.20     0.31     7.06     0  03:01        0.31
  YS02001625           JUNCTION     0.52     0.63     7.23     0  05:58        0.63
  YS02163301           JUNCTION     0.59     0.72     7.23     0  05:57        0.72
  YS02163601           JUNCTION     0.71     0.84     7.24     0  05:58        0.84
  YS02164001           JUNCTION     0.65     0.77     7.23     0  05:58        0.77
  YS02001647           JUNCTION     0.50     0.63     7.24     0  05:57        0.63
  YSB1154              JUNCTION     0.23     0.34     9.40     0  02:23        0.34
  YSB6556              JUNCTION     0.13     0.23     9.39     0  02:23        0.23
  YSB1174              JUNCTION     0.18     0.29     9.39     0  02:23        0.29
  YSB1171              JUNCTION     0.38     0.49     9.39     0  02:23        0.49
  YS02006553           JUNCTION     0.64     0.76     7.04     0  03:01        0.76
  YS02006561           JUNCTION     0.11     0.17     6.83     0  03:02        0.17
  YS02006556           JUNCTION     0.61     0.73     7.04     0  03:02        0.73
  YS02006558           JUNCTION     0.65     0.78     7.04     0  03:02        0.78
  YS02001783           JUNCTION     0.19     0.30     6.44     0  03:02        0.30
  YS02001784           JUNCTION     0.22     0.33     6.40     0  03:01        0.33
  YS02001786           JUNCTION     0.19     0.28     6.31     0  03:02        0.28
  YS02001788           JUNCTION     0.14     0.21     6.18     0  03:02        0.21
  YS02001790           JUNCTION     0.17     0.25     5.90     0  03:03        0.25
  YS02001791           JUNCTION     0.11     0.17     5.64     0  03:03        0.17
  YS02001793           JUNCTION     0.07     0.11     4.94     0  02:56        0.11
  WS02004139           JUNCTION     0.55     0.69     5.60     0  02:30        0.69
  WSC                  OUTFALL      0.27     0.34     1.01     0  02:59        0.34
  3                    OUTFALL      0.05     0.23     6.23     0  00:00        0.19
  4                    OUTFALL      0.01     0.10     7.10     0  03:13        0.10
  5                    OUTFALL      0.00     0.00     5.00     0  00:00        0.00
  JK-storage           STORAGE      0.21     3.00     3.80     0  00:00        2.39
  CC-storage           STORAGE      0.08     0.22     7.22     0  05:55        0.22
  XR-storage           STORAGE      6.82     7.72     5.72     0  03:58        7.72
  
  
  *******************
  Node Inflow Summary
  *******************
  
  -------------------------------------------------------------------------------------------------
                                  Maximum  Maximum                  Lateral       Total        Flow
                                  Lateral    Total  Time of Max      Inflow      Inflow     Balance
                                   Inflow   Inflow   Occurrence      Volume      Volume       Error
  Node                 Type           LPS      LPS  days hr:min    10^6 ltr    10^6 ltr     Percent
  -------------------------------------------------------------------------------------------------
  WS02001211           JUNCTION      7.35   375.92     0  02:30       0.207        5.82       0.534
  WS02001212           JUNCTION      0.00   368.72     0  02:31           0        5.79       0.312
  WS02001213           JUNCTION      0.00   367.55     0  02:31           0        5.77       0.344
  WS02003069           JUNCTION      0.32   724.44     0  02:57     0.00902        11.8       0.246
  WS02003072           JUNCTION      0.00   724.34     0  02:57           0        11.8       0.303
  WS02003073           JUNCTION      1.82   726.16     0  02:58      0.0514        11.8       0.338
  WS02003060           JUNCTION     16.53   724.15     0  02:56       0.466        11.8       0.236
  WS02003066           JUNCTION      0.00   466.49     0  02:59           0        5.63       0.087
  WS02003059           JUNCTION      0.00   364.10     0  02:32           0        5.76       0.628
  WS02003067           JUNCTION      0.00   466.45     0  02:59           0        5.64       0.179
  WS02004401           JUNCTION      0.00   470.81     0  02:54           0        5.89       0.390
  WS02004402           JUNCTION      0.00   470.06     0  02:54           0        5.87       0.367
  WS02004403           JUNCTION      0.00   469.62     0  02:55           0        5.84       0.332
  WS02004404           JUNCTION      0.16   469.59     0  02:56     0.00457        5.83       0.247
  WS02004406           JUNCTION      0.00   469.67     0  02:56           0        5.79       0.604
  WS02004409           JUNCTION      0.00   469.56     0  02:57           0        5.75       0.321
  WS02004410           JUNCTION      0.00   468.45     0  02:57           0        5.73       0.359
  WS02004411           JUNCTION      0.00   467.56     0  02:58           0        5.71       0.366
  WS02004412           JUNCTION      0.00   467.00     0  02:58           0        5.69       0.392
  WS02004413           JUNCTION      0.00   466.64     0  02:58           0        5.67       0.573
  WS02004405           JUNCTION      0.04   469.65     0  02:56     0.00107        5.82       0.373
  WS02006109           JUNCTION      1.23   472.64     0  02:52      0.0347           6       0.346
  WS02006110           JUNCTION      0.00   472.64     0  02:52           0        5.98       0.339
  WS02006111           JUNCTION      0.00   487.41     0  02:53           0        5.95       0.076
  WS02006112           JUNCTION      5.55   478.48     0  02:52      0.0177        5.96       0.489
  WS02006113           JUNCTION      0.00   472.94     0  02:53           0        5.96       0.174
  WS02006115           JUNCTION      0.00   474.31     0  02:53           0        5.93       0.376
  WS02006116           JUNCTION      0.00   472.04     0  02:53           0        5.91       0.361
  WS02006230           JUNCTION     10.28   391.71     0  06:19        0.29        5.33       0.218
  WS02006231           JUNCTION      0.00   381.46     0  06:17           0        5.05       0.277
  WS02006232           JUNCTION      0.00   381.51     0  06:14           0        5.07       0.322
  WS02006234           JUNCTION      0.00   382.13     0  06:13           0        5.08       0.172
  WS02006235           JUNCTION      0.00   382.53     0  06:13           0        5.11       0.194
  WS02006238           JUNCTION      0.00   340.73     0  03:20           0        3.27       0.237
  WS02006240           JUNCTION      0.00   336.49     0  03:20           0        3.27       0.386
  WS02006242           JUNCTION      0.00   334.27     0  03:20           0        3.28       0.460
  WS02006243           JUNCTION      0.00   331.93     0  03:41           0        3.27      -0.232
  WS02006245           JUNCTION      0.00   338.43     0  03:41           0        3.28       0.391
  WS02006247           JUNCTION      0.00   344.79     0  03:40           0        3.29       0.201
  WS02006248           JUNCTION      0.00   350.71     0  03:40           0        3.29       0.045
  WS02006249           JUNCTION      0.00   409.24     0  03:14           0        3.52       0.414
  WS02006239           JUNCTION      0.00   340.08     0  03:20           0        3.27       0.350
  WS02006251           JUNCTION      0.08   409.93     0  02:50     0.00217        3.56       0.231
  WS02006252           JUNCTION      0.00   400.00     0  03:10           0        3.43       0.008
  WS02006253           JUNCTION      0.86    23.83     0  02:23      0.0023        0.13       3.151
  WS02006256           JUNCTION      0.00   600.00     0  00:00           0        3.11       0.060
  WS02004138           JUNCTION      0.00   379.97     0  02:30           0        5.64       0.064
  WS02004407           JUNCTION      0.00   469.59     0  02:56           0        5.76       0.143
  WS02006228           JUNCTION      0.00   471.41     0  02:52           0        5.98       0.265
  WS02006229           JUNCTION      0.00   471.38     0  02:52           0        5.99       0.194
  WS02006280           JUNCTION      0.00   128.48     0  02:24           0       0.674       0.011
  WS02006284           JUNCTION      0.10   128.48     0  02:24      0.0027       0.676       0.169
  WS02006287           JUNCTION      0.00   128.40     0  02:24           0       0.674       0.103
  WSF200               JUNCTION      0.00   466.48     0  02:59           0        5.62       0.091
  HS02004901           JUNCTION      6.88     6.88     0  02:14      0.0213      0.0215       8.912
  HS02004881           JUNCTION      2.77    23.18     0  02:23      0.0093      0.0964       0.215
  HS02004876           JUNCTION      4.39    20.65     0  02:23      0.0178      0.0877       0.597
  HS02004870           JUNCTION      4.88    16.35     0  02:23      0.0176        0.07       0.152
  HS02004862           JUNCTION      4.07    11.80     0  02:24      0.0231      0.0526       0.318
  HS02004856           JUNCTION      3.61     7.77     0  02:23      0.0132      0.0309       4.879
  HS02004852           JUNCTION      0.00     4.39     0  02:23           0      0.0177       0.274
  HS02004848           JUNCTION      7.93     7.93     0  02:26      0.0415      0.0415       0.103
  HS02004842           JUNCTION      0.00     4.47     0  00:03           0      0.0368      54.663
  HS02004837           JUNCTION     14.15    17.50     0  02:22        0.21       0.233       0.350
  HS02004830           JUNCTION      0.15    17.64     0  02:22     0.00423       0.224       0.553
  HS02004824           JUNCTION      8.91    26.44     0  02:27      0.0545       0.277       0.195
  HS02004817           JUNCTION      0.60    27.03     0  02:27      0.0169       0.293       6.020
  HS02004807           JUNCTION      9.19    35.40     0  02:25      0.0324       0.309       1.385
  HS02004802           JUNCTION      0.00    35.49     0  02:26           0       0.305       1.349
  HS02004799           JUNCTION      7.06    79.20     0  02:21      0.0262       0.333       0.678
  HS02004792           JUNCTION     31.74    72.33     0  02:21       0.117       0.307       0.135
  HS02004788           JUNCTION     11.24    42.23     0  02:22      0.0834       0.191       0.203
  HS02004785           JUNCTION      0.15    31.37     0  02:22     0.00423        0.11       0.438
  HS02004777           JUNCTION      0.03    31.71     0  02:19    0.000846        0.11       4.932
  HS02004770           JUNCTION     26.82    32.75     0  02:17      0.0911       0.111       2.877
  HS02004480           JUNCTION      0.00    93.32     0  02:22           0       0.385       0.180
  HS02004479           JUNCTION      0.00    14.38     0  02:24           0      0.0645       1.142
  HS02004478           JUNCTION      0.00   128.41     0  02:24           0       0.674       0.097
  YS02001745           JUNCTION     44.03    44.03     0  03:01       0.508       0.508       0.076
  YS02001748           JUNCTION      0.04    44.06     0  03:01     0.00127       0.509       0.019
  YS02001751           JUNCTION      0.01    97.86     0  05:25     0.00031       0.677       0.251
  YS02001754           JUNCTION      0.26   218.75     0  05:18     0.00733        1.09       1.087
  YS02001762           JUNCTION      0.00    68.23     0  03:18           0       0.638       2.246
  YS02001765           JUNCTION      0.00    90.72     0  03:27           0       0.628       2.440
  YS02001767           JUNCTION      0.54    65.73     0  02:59      0.0151       0.633       3.161
  YS02001770           JUNCTION     57.41    61.22     0  02:59       0.607       0.631       2.722
  YS02001774           JUNCTION      0.00    30.19     0  02:30           0      0.0906      19.930
  YS02001779           JUNCTION      0.01    13.81     0  02:30    0.000141      0.0516      11.489
  YS02001882           JUNCTION      0.00     2.54     0  02:13           0     0.00369      66.967
  YS02001884           JUNCTION      0.00     7.47     0  02:09           0       0.015      42.075
  YS02001759           JUNCTION     56.19   132.55     0  03:33       0.569        1.18       1.369
  YS02001887           JUNCTION     74.16    74.16     0  02:54       0.694       0.701       0.964
  YS02001890           JUNCTION      0.00    73.81     0  02:56           0       0.681       1.092
  YS02001898           JUNCTION      0.00    73.54     0  02:59           0       0.671       0.282
  YS02001901           JUNCTION      0.00    73.49     0  03:00           0       0.671       0.760
  YS02001904           JUNCTION      0.00    73.42     0  03:02           0        0.67       0.709
  YS02001907           JUNCTION      0.00   133.66     0  03:02           0        1.43       1.518
  YS02001910           JUNCTION      0.00    60.36     0  03:01           0       0.766       1.268
  YS02001915           JUNCTION     39.75    60.28     0  03:01       0.439        0.77       0.524
  YS02001918           JUNCTION      0.00    20.77     0  03:03           0       0.332       0.264
  YS02001619           JUNCTION     38.56    38.56     0  03:01       0.432       0.432       0.153
  YS02001629           JUNCTION      0.00    40.48     0  03:13           0       0.414       1.423
  YS02001641           JUNCTION      0.00    86.97     0  03:13           0       0.879       1.478
  YS02001644           JUNCTION     41.77   123.25     0  03:10       0.487        1.35       1.171
  YS02001652           JUNCTION      0.00    69.26     0  05:48           0       0.565       1.705
  YS02001655           JUNCTION      0.15    52.58     0  02:57     0.00434       0.519       0.665
  YS02001920           JUNCTION      2.87    20.79     0  03:02      0.0809       0.333       0.528
  YS02001923           JUNCTION      0.04    17.92     0  03:02     0.00106       0.253       0.093
  YS02001926           JUNCTION      0.05    17.94     0  03:01     0.00147       0.253       0.676
  YS02001929           JUNCTION     17.90    17.90     0  03:01       0.252       0.252       0.088
  YS02001658           JUNCTION      0.00    52.42     0  02:57           0       0.501       0.038
  YS02001661           JUNCTION      0.00    52.42     0  02:57           0       0.502       0.148
  YS02001664           JUNCTION     52.42    52.42     0  02:57       0.502       0.502       0.030
  YS02001622           JUNCTION      0.00    39.86     0  02:59           0       0.431       0.670
  YS02001633           JUNCTION     42.46    81.62     0  03:07       0.502       0.903       2.097
  YS02001649           JUNCTION      0.00   200.10     0  03:20           0        1.85       1.300
  YS02001757           JUNCTION      0.00   443.38     0  03:33           0        3.77       1.851
  YS02001895           JUNCTION      0.00    73.62     0  02:58           0       0.674       0.481
  YS02001625           JUNCTION      0.00    40.64     0  02:59           0       0.428       3.682
  YS02163301           JUNCTION      0.00    44.78     0  03:13           0       0.414       3.088
  YS02163601           JUNCTION      0.11    85.88     0  03:07      0.0031       0.884       2.263
  YS02164001           JUNCTION      0.00    86.28     0  03:13           0       0.874       1.374
  YS02001647           JUNCTION      0.00   128.16     0  03:06           0        1.32       0.952
  YSB1154              JUNCTION      7.80     7.80     0  02:20      0.0316      0.0331       4.564
  YSB6556              JUNCTION      0.00     7.74     0  02:22           0      0.0342       3.780
  YSB1174              JUNCTION      7.85     7.85     0  02:13      0.0232      0.0242       5.614
  YSB1171              JUNCTION      0.00    14.44     0  02:22           0      0.0639      10.974
  YS02006553           JUNCTION      0.00   133.82     0  03:03           0        1.41       0.988
  YS02006561           JUNCTION      0.00   195.84     0  03:02           0           2       0.027
  YS02006556           JUNCTION      0.00   133.99     0  03:04           0        1.42       0.709
  YS02006558           JUNCTION     62.97   195.85     0  03:01       0.632        2.02       0.214
  YS02001783           JUNCTION      0.00   195.83     0  03:02           0           2       0.063
  YS02001784           JUNCTION      1.06   196.89     0  03:02      0.0299        2.03       0.106
  YS02001786           JUNCTION      0.06   196.93     0  03:02     0.00159        2.02       0.104
  YS02001788           JUNCTION      0.07   197.00     0  03:02       0.002        2.02       0.058
  YS02001790           JUNCTION      0.15   197.17     0  03:02     0.00437        2.03       0.075
  YS02001791           JUNCTION      0.00   197.15     0  03:03           0        2.03       0.036
  YS02001793           JUNCTION      0.00   197.15     0  03:03           0        2.03       0.020
  WS02004139           JUNCTION      0.32   379.09     0  01:40     0.00905        5.65       0.570
  WSC                  OUTFALL       0.00   726.12     0  02:59           0        11.7       0.000
  3                    OUTFALL       0.00   597.65     0  00:00           0        1.25       0.000
  4                    OUTFALL       0.00   106.00     0  03:13           0       0.219       0.000
  5                    OUTFALL       0.00     0.00     0  00:00           0           0       0.000 ltr
  JK-storage           STORAGE       0.00   199.08     0  02:58           0        2.18     -30.028
  CC-storage           STORAGE       0.00   324.96     0  03:08           0        3.29      -4.149
  XR-storage           STORAGE     272.15   272.15     0  03:01        6.49        7.09      -0.001
  
  
  **********************
  Node Surcharge Summary
  **********************
  
  Surcharging occurs when water rises above the top of the highest conduit.
  ---------------------------------------------------------------------
                                               Max. Height   Min. Depth
                                   Hours       Above Crown    Below Rim
  Node                 Type      Surcharged         Meters       Meters
  ---------------------------------------------------------------------
  WS02006109           JUNCTION        1.11          0.077        1.743
  WS02006232           JUNCTION        1.05          0.068        1.412
  WS02006235           JUNCTION        0.43          0.046        1.244
  WS02006238           JUNCTION        0.73          0.065        1.365
  WS02006240           JUNCTION        0.02          0.003        1.387
  WS02006242           JUNCTION        0.52          0.053        0.767
  WS02006239           JUNCTION        0.14          0.019        1.271
  WS02006252           JUNCTION        1.38          0.185        0.915
  WS02006256           JUNCTION        0.01          1.050        0.000
  WS02006228           JUNCTION        1.04          0.089        2.111
  
  
  *********************
  Node Flooding Summary
  *********************
  
  Flooding refers to all water that overflows a node, whether it ponds or not.
  --------------------------------------------------------------------------
                                                             Total   Maximum
                                 Maximum   Time of Max       Flood    Ponded
                        Hours       Rate    Occurrence      Volume     Depth
  Node                 Flooded       LPS   days hr:min    10^6 ltr    Meters
  --------------------------------------------------------------------------
  WS02006256              0.01    406.11      0  00:00       0.001     0.000
  XR-storage              2.09    226.10      0  06:30       0.517     0.000
  
  
  **********************
  Storage Volume Summary
  **********************
  
  --------------------------------------------------------------------------------------------------
                         Average     Avg  Evap Exfil       Maximum     Max    Time of Max    Maximum
                          Volume    Pcnt  Pcnt  Pcnt        Volume    Pcnt     Occurrence    Outflow
  Storage Unit           1000 m3    Full  Loss  Loss       1000 m3    Full    days hr:min        LPS
  --------------------------------------------------------------------------------------------------
  JK-storage               0.010       4     0     0         0.151      52       0  00:00     600.00
  CC-storage               0.210       1     0     0         0.604       4       0  05:55     400.00
  XR-storage               0.818      88     0     0         0.926     100       0  03:58     379.97
  
  
  ***********************
  Outfall Loading Summary
  ***********************
  
  -----------------------------------------------------------
                         Flow       Avg       Max       Total
                         Freq      Flow      Flow      Volume
  Outfall Node           Pcnt       LPS       LPS    10^6 ltr
  -----------------------------------------------------------
  WSC                   99.99    481.33    726.12      11.730
  3                     70.64     97.27    597.65       1.246
  4                     23.75     43.70    106.00       0.219
  5                      0.00      0.00      0.00       0.000
  -----------------------------------------------------------
  System                48.60    622.29   1037.89      13.196
  
  
  ********************
  Link Flow Summary
  ********************
  
  -----------------------------------------------------------------------------
                                 Maximum  Time of Max   Maximum    Max/    Max/
                                  |Flow|   Occurrence   |Veloc|    Full    Full
  Link                 Type          LPS  days hr:min     m/sec    Flow   Depth
  -----------------------------------------------------------------------------
  WS02003066WSF200     CONDUIT    466.48     0  02:59      2.69    0.08    0.21
  WS02006287WS02006284 CONDUIT    128.39     0  02:24      1.37    0.06    0.18
  WS02006284WS02006280 CONDUIT    128.48     0  02:24      1.62    0.05    0.16
  WS02006280WS02006229 CONDUIT    128.48     0  02:25      2.60    0.03    0.11
  WS02006229WS02006228 CONDUIT    471.41     0  02:52      0.94    1.56    1.00
  WS02006256WS02006235 CONDUIT    177.52     0  00:01      2.73    1.88    1.00
  WS02006253WS02006251 CONDUIT     87.75     0  07:42      0.40    0.26    0.91
  WS02006252WS02006251 CONDUIT    400.11     0  06:10      3.18    1.47    1.00
  WS02006251WS02006249 CONDUIT    409.24     0  03:14      1.16    1.18    0.88
  WS02006249WS02006248 CONDUIT    350.71     0  03:40      1.15    1.92    0.83
  WS02006248WS02006247 CONDUIT    344.79     0  03:40      1.10    0.75    0.88
  WS02006247WS02006245 CONDUIT    338.43     0  03:41      1.06    2.68    0.92
  WS02006245WS02006243 CONDUIT    331.93     0  03:41      1.11    0.98    0.93
  WS02006243WS02006242 CONDUIT    334.27     0  03:20      0.92    0.71    0.98
  WS02006242WS02006240 CONDUIT    336.49     0  03:20      0.89    1.34    1.00
  WS02006240WS02006239 CONDUIT    340.08     0  03:20      0.92    1.07    1.00
  WS02006239WS02006238 CONDUIT    340.73     0  03:20      0.89    1.09    1.00
  WS02006238WS02006235 CONDUIT    341.07     0  03:20      1.32    0.76    1.00
  WS02006235WS02006234 CONDUIT    382.13     0  06:13      1.03    4.03    1.00
  WS02006234WS02006232 CONDUIT    381.51     0  06:14      1.17    0.77    1.00
  WS02006232WS02006231 CONDUIT    381.46     0  06:17      1.04    0.80    0.94
  WS02006231WS02006230 CONDUIT    381.43     0  06:19      1.33    5.79    0.84
  WS02006230WS02006229 CONDUIT    391.72     0  06:20      1.02    8.72    1.00
  WS02006228WS02006109 CONDUIT    471.41     0  02:52      0.94    2.06    1.00
  WS02006116WS02004401 CONDUIT    470.81     0  02:54      0.71    0.65    0.79
  WS02006115WS02006116 CONDUIT    472.04     0  02:53      0.82    0.61    0.70
  WS02006113WS02006111 CONDUIT    487.41     0  02:53      2.35    0.58    0.43
  WS02006112WS02006115 CONDUIT    474.31     0  02:53      0.68    0.28    0.83
  WS02006111WS02006112 CONDUIT    476.07     0  02:52      1.35    0.23    0.66
  WS02006110WS02006113 CONDUIT    472.94     0  02:53      1.15    0.43    0.76
  WS02006109WS02006110 CONDUIT    472.64     0  02:52      0.95    0.91    0.98
  WS02004411WS02004412 CONDUIT    467.00     0  02:58      0.86    0.66    0.65
  WS02004401WS02004402 CONDUIT    470.06     0  02:54      0.69    0.56    0.81
  WS02004413WS02003067 CONDUIT    466.45     0  02:59      1.03    0.20    0.56
  WS02004412WS02004413 CONDUIT    466.64     0  02:58      0.75    0.31    0.74
  WS02004410WS02004411 CONDUIT    467.56     0  02:58      0.88    0.64    0.64
  WS02004409WS02004410 CONDUIT    468.45     0  02:57      0.91    0.61    0.62
  WS02004407WS02004409 CONDUIT    469.56     0  02:57      1.40    0.17    0.45
  WS02004406WS02004407 CONDUIT    469.59     0  02:56      0.96    0.21    0.60
  WS02004405WS02004406 CONDUIT    469.67     0  02:56      0.62    0.93    0.92
  WS02004404WS02004405 CONDUIT    469.61     0  02:56      0.62    4.60    0.92
  WS02004403WS02004404 CONDUIT    469.43     0  02:56      0.64    0.34    0.88
  WS02004402WS02004403 CONDUIT    469.62     0  02:55      0.67    0.67    0.84
  WS02004139WS02001211 CONDUIT    368.57     0  02:30      0.69    0.47    0.55
  WS02004138WS02004139 CONDUIT    378.77     0  01:40      2.94    0.08    0.41
  WS02003067WS02003066 CONDUIT    466.49     0  02:59      1.12    0.15    0.40
  WS02001213WS02003059 CONDUIT    364.10     0  02:32      0.67    0.60    0.68
  WS02001212WS02001213 CONDUIT    367.55     0  02:31      1.30    0.57    0.39
  WS02001211WS02001212 CONDUIT    368.72     0  02:31      0.76    0.28    0.59
  WS02003072WS02003073 CONDUIT    724.34     0  02:58      1.58    1.56    0.43
  WS02003069WS02003072 CONDUIT    724.34     0  02:57      1.49    0.35    0.44
  WS02003060WS02003069 CONDUIT    724.12     0  02:57      1.75    0.28    0.39
  WS02003059WS02003060 CONDUIT    359.61     0  02:33      0.91    0.23    0.58
  HS02004901HS02004770 CONDUIT      6.18     0  02:21      0.03    0.02    0.27
  HS02004876HS02004881 CONDUIT     20.66     0  02:24      0.40    0.22    0.07
  HS02004870HS02004876 CONDUIT     16.34     0  02:24      0.28    0.01    0.08
  HS02004842HS02004848 CONDUIT      3.77     0  02:36      0.02    0.00    0.26
  HS02004837HS02004842 CONDUIT      4.47     0  00:03      0.41    0.00    0.28
  HS02004830HS02004837 CONDUIT     17.49     0  02:22      0.39    0.02    0.06
  HS02004824HS02004830 CONDUIT     17.64     0  02:24      0.43    0.02    0.06
  HS02004817HS02004824 CONDUIT     26.43     0  02:27      0.17    0.01    0.37
  HS02004770HS02004777 CONDUIT     31.68     0  02:19      0.16    0.06    0.28
  HS02004799HS02004480 CONDUIT     79.06     0  02:22      0.46    0.10    0.25
  HS02004792HS02004799 CONDUIT     72.30     0  02:22      0.53    0.04    0.19
  HS02004788HS02004792 CONDUIT     42.19     0  02:23      0.69    0.03    0.09
  HS02004785HS02004788 CONDUIT     31.27     0  02:23      0.41    0.24    0.11
  HS02004777HS02004785 CONDUIT     31.22     0  02:22      0.20    0.04    0.22
  HS02004480HS02004478 CONDUIT     93.26     0  02:23      0.78    0.39    0.17
  HS02004479HS02004480 CONDUIT     14.50     0  02:25      0.15    0.01    0.24
  HS02004862HS02004870 CONDUIT     11.77     0  02:25      0.38    0.01    0.04
  HS02004848HS02004852 CONDUIT      4.39     0  02:23      0.24    0.00    0.03
  HS02004856HS02004862 CONDUIT      7.75     0  02:24      0.27    0.01    0.04
  HS02004852HS02004856 CONDUIT      4.36     0  02:25      0.08    0.00    0.08
  HS02004802HS02004478 CONDUIT     35.65     0  02:27      0.24    0.03    0.21
  HS02004478WS02006287 CONDUIT    128.40     0  02:24      1.06    0.04    0.13
  HS02004817HS02004807 CONDUIT     27.29     0  02:29      0.08    0.02    0.47
  HS02004807HS02004802 CONDUIT     35.49     0  02:26      0.20    0.07    0.26
  YS02001759YS02001757 CONDUIT    124.57     0  03:00      0.17    0.09    0.93
  YS02001762YS02001759 CONDUIT     91.39     0  03:40      0.17    0.11    0.85
  YS02001765YS02001762 CONDUIT     68.23     0  03:18      0.22    0.06    0.82
  YS02001770YS02001767 CONDUIT     65.19     0  02:59      0.32    0.26    0.74
  YS02001774YS02001770 CONDUIT     30.19     0  02:30      0.14    0.02    0.76
  YS02001779YS02001774 CONDUIT     13.80     0  02:30      0.07    0.01    0.68
  YS02001649YS02001757 CONDUIT    191.70     0  03:07      0.26    0.12    0.92
  YS02001767YS02001765 CONDUIT     90.72     0  03:27      0.26    0.11    0.76
  YS02006561YS02001783 CONDUIT    195.83     0  03:02      1.58    0.10    0.30
  YS02001783YS02001784 CONDUIT    195.83     0  03:02      1.06    0.27    0.40
  YS02001784YS02001785 CONDUIT    196.87     0  03:02      1.10    0.46    0.38
  YS02001788YS02001790 CONDUIT    197.01     0  03:02      1.66    0.15    0.29
  YS02001790YS02001791 CONDUIT    197.15     0  03:03      1.89    0.21    0.26
  YS02001791YS02001793 CONDUIT    197.15     0  03:03      3.80    0.08    0.17
  YS02001910YS02001907 CONDUIT     60.36     0  03:04      0.49    0.03    0.64
  YS02001786YS02001788 CONDUIT    196.93     0  03:02      1.51    0.38    0.31
  YS02001915YS02001910 CONDUIT     60.36     0  03:01      0.44    0.03    0.43
  YS02001918YS02001915 CONDUIT     20.75     0  03:04      0.44    0.01    0.20
  YS02001923YS02001920 CONDUIT     17.92     0  03:02      0.35    0.01    0.12
  YS02001926YS02001923 CONDUIT     17.88     0  03:02      0.40    0.03    0.11
  YS02001929YS02001926 CONDUIT     17.89     0  03:01      0.42    0.01    0.10
  YS02001920YS02001918 CONDUIT     20.77     0  03:03      0.37    0.02    0.12
  YS02001629YS02163301 CONDUIT     44.78     0  03:13      0.09    0.06    0.70
  YS02001619YS02001622 CONDUIT     39.86     0  02:59      0.57    0.06    0.32
  YS02001622YS02001625 CONDUIT     40.64     0  02:59      0.19    0.02    0.48
  YS02001625YS02001629 CONDUIT     40.48     0  03:13      0.19    0.02    0.47
  YS02163301YS02001633 CONDUIT     41.94     0  02:39      0.09    0.04    0.75
  YS02163601YS02164001 CONDUIT     86.28     0  03:13      0.13    0.08    0.81
  YS02164001YS02001641 CONDUIT     86.97     0  03:13      0.13    0.12    0.79
  YS02001641YS02001644 CONDUIT     83.95     0  03:10      0.13    0.27    0.80
  YS02001647YS02001649 CONDUIT    130.87     0  03:10      0.22    0.07    0.73
  YS02006553YS02006556 CONDUIT    133.99     0  03:04      0.22    0.11    0.73
  YS02006556YS02006558 CONDUIT    134.13     0  03:04      0.21    0.11    0.75
  YSB6556YSB1171       CONDUIT      7.86     0  02:26      0.04    0.01    0.51
  YS02001907YS02006553 CONDUIT    133.82     0  03:03      0.18    0.16    0.83
  YS02006558YS02006561 CONDUIT    195.84     0  03:02      2.03    0.43    0.37
  YS02001633YS02163601 CONDUIT     85.77     0  03:07      0.13    0.09    0.80
  YS02001644YS02001647 CONDUIT    128.16     0  03:06      0.22    0.08    0.71
  YS02001745YS02001748 CONDUIT     44.01     0  03:01      1.25    0.02    0.09
  YS02001748YS02001751 CONDUIT     52.98     0  03:30      0.96    0.03    0.26
  YS02001751YS02001754 CONDUIT    111.19     0  03:36      0.88    0.05    0.47
  YS02001754YS02001757 CONDUIT    162.71     0  03:42      0.33    0.07    0.81
  YS02001882YS02001884 CONDUIT      2.54     0  02:13      0.06    0.00    0.37
  YS02001884YS02001887 CONDUIT      7.47     0  02:09      0.06    0.01    0.46
  YS02001890YS02001895 CONDUIT     73.62     0  02:58      0.23    0.03    0.43
  YS02001895YS02001898 CONDUIT     73.54     0  02:59      0.44    0.13    0.30
  YS02001898YS02001901 CONDUIT     73.49     0  03:00      0.27    0.05    0.37
  YS02001901YS02001904 CONDUIT     73.42     0  03:02      0.23    0.11    0.43
  YS02001904YS02001907 CONDUIT     73.62     0  03:02      0.15    0.03    0.59
  YS02001887YS02001890 CONDUIT     73.81     0  02:56      0.18    0.13    0.52
  YS02001652YS02001649 CONDUIT     78.13     0  03:40      0.29    0.04    0.74
  YS02001655YS02001652 CONDUIT     66.78     0  03:07      0.94    0.03    0.50
  YS02001658YS02001655 CONDUIT     52.42     0  02:57      1.11    0.02    0.24
  YS02001661YS02001658 CONDUIT     52.42     0  02:57      1.26    0.02    0.10
  YS02001664YS02001661 CONDUIT     52.42     0  02:57      0.88    0.02    0.13
  YSB1154YSB6556       CONDUIT      7.74     0  02:22      0.19    0.01    0.40
  YSB1174YSB1171       CONDUIT      7.21     0  02:15      0.04    0.01    0.52
  YSB1171HS02004479    CONDUIT     14.38     0  02:24      0.54    0.01    0.39
  HS02004881HS02006253 CONDUIT     23.18     0  02:23      1.36    0.00    0.23
  YS02001793JiankangQianchi CONDUIT    199.08     0  02:58     11.43    0.02    0.54
  YS02001757CaochengTiaoxuchi CONDUIT    324.96     0  03:08      0.85    0.14    0.60
  WSF200WS02003060     CONDUIT    467.02     0  03:00      1.87    0.10    0.30
  1                    CONDUIT    726.12     0  02:59      3.05    0.25    0.34
  2                    CONDUIT    106.00     0  03:13      4.93    0.25    0.34
  3                    CONDUIT    597.65     0  00:00     10.09    0.95    0.86
  4                    CONDUIT      0.00     0  00:00      0.00    0.00    0.00
  CC-Pump-1            PUMP       200.00     0  02:40              1.00
  CC-Pump-2            PUMP       200.00     0  02:50              1.00
  JK-Pump-1            PUMP       300.00     0  00:00              1.00
  JK-Pump-2            PUMP       300.00     0  00:00              1.00
  XR-Pump-1            PUMP        95.00     0  00:00              1.00
  XR-Pump-2            PUMP        95.00     0  00:00              1.00
  XR-Pump-3            PUMP        95.00     0  00:40              1.00
  XR-Pump-4            PUMP        95.00     0  00:30              1.00
  
  
  ***************************
  Flow Classification Summary
  ***************************
  
  -------------------------------------------------------------------------------------
                      Adjusted    ---------- Fraction of Time in Flow Class ---------- 
                       /Actual         Up    Down  Sub   Sup   Up    Down  Norm  Inlet 
  Conduit               Length    Dry  Dry   Dry   Crit  Crit  Crit  Crit  Ltd   Ctrl  
  -------------------------------------------------------------------------------------
  WS02003066WSF200        1.00   0.07  0.01  0.00  0.00  0.92  0.00  0.00  0.69  0.00
  WS02006287WS02006284    1.00   0.04  0.02  0.00  0.71  0.24  0.00  0.00  0.81  0.00
  WS02006284WS02006280    1.00   0.05  0.00  0.00  0.00  0.00  0.00  0.95  0.00  0.00
  WS02006280WS02006229    1.00   0.05  0.00  0.00  0.00  0.00  0.00  0.95  0.00  0.00
  WS02006229WS02006228    1.00   0.00  0.00  0.00  0.98  0.00  0.00  0.02  0.00  0.00
  WS02006256WS02006235    1.00   0.00  0.00  0.00  1.00  0.00  0.00  0.00  0.00  0.00
  WS02006253WS02006251    1.00   0.03  0.01  0.00  0.96  0.00  0.00  0.00  0.00  0.00
  WS02006252WS02006251    1.00   0.09  0.00  0.00  0.00  0.00  0.91  0.00  0.00  0.00
  WS02006251WS02006249    1.00   0.00  0.00  0.00  1.00  0.00  0.00  0.00  0.37  0.00
  WS02006249WS02006248    1.00   0.00  0.02  0.00  0.81  0.00  0.17  0.00  0.00  0.00
  WS02006248WS02006247    1.00   0.02  0.00  0.00  0.97  0.00  0.00  0.01  0.28  0.00
  WS02006247WS02006245    1.00   0.02  0.00  0.00  0.96  0.00  0.00  0.02  0.00  0.00
  WS02006245WS02006243    1.00   0.02  0.00  0.00  0.92  0.00  0.00  0.06  0.02  0.00
  WS02006243WS02006242    1.00   0.01  0.01  0.00  0.98  0.00  0.00  0.00  0.31  0.00
  WS02006242WS02006240    1.00   0.01  0.00  0.00  0.99  0.00  0.00  0.00  0.00  0.00
  WS02006240WS02006239    1.00   0.00  0.00  0.00  0.93  0.00  0.00  0.06  0.02  0.00
  WS02006239WS02006238    1.00   0.00  0.00  0.00  1.00  0.00  0.00  0.00  0.02  0.00
  WS02006238WS02006235    1.00   0.00  0.00  0.00  1.00  0.00  0.00  0.00  0.00  0.00
  WS02006235WS02006234    1.00   0.00  0.00  0.00  0.93  0.00  0.07  0.00  0.00  0.00
  WS02006234WS02006232    1.00   0.00  0.00  0.00  1.00  0.00  0.00  0.00  0.09  0.00
  WS02006232WS02006231    1.00   0.00  0.00  0.00  0.99  0.00  0.01  0.00  0.00  0.00
  WS02006231WS02006230    1.00   0.01  0.00  0.00  0.37  0.00  0.62  0.00  0.00  0.00
  WS02006230WS02006229    1.00   0.00  0.00  0.00  0.98  0.00  0.00  0.02  0.01  0.00
  WS02006228WS02006109    1.00   0.00  0.00  0.00  0.99  0.00  0.00  0.00  0.01  0.00
  WS02006116WS02004401    1.00   0.02  0.00  0.00  0.98  0.00  0.00  0.00  0.00  0.00
  WS02006115WS02006116    1.00   0.02  0.00  0.00  0.96  0.00  0.00  0.01  0.01  0.00
  WS02006113WS02006111    1.00   0.02  0.00  0.00  0.00  0.98  0.00  0.00  0.15  0.00
  WS02006112WS02006115    1.00   0.02  0.00  0.00  0.97  0.00  0.00  0.00  0.00  0.00
  WS02006111WS02006112    1.00   0.02  0.00  0.00  0.98  0.00  0.00  0.00  0.98  0.00
  WS02006110WS02006113    1.00   0.02  0.00  0.00  0.98  0.00  0.00  0.00  0.00  0.00
  WS02006109WS02006110    1.00   0.00  0.02  0.00  0.98  0.00  0.00  0.00  0.00  0.00
  WS02004411WS02004412    1.00   0.06  0.00  0.00  0.94  0.00  0.00  0.00  0.00  0.00
  WS02004401WS02004402    1.00   0.02  0.00  0.00  0.98  0.00  0.00  0.00  0.00  0.00
  WS02004413WS02003067    1.00   0.06  0.02  0.00  0.00  0.00  0.92  0.00  0.00  0.00
  WS02004412WS02004413    1.00   0.06  0.00  0.00  0.94  0.00  0.00  0.00  0.03  0.00
  WS02004410WS02004411    1.00   0.06  0.00  0.00  0.94  0.00  0.00  0.00  0.01  0.00
  WS02004409WS02004410    1.00   0.06  0.00  0.00  0.94  0.00  0.00  0.00  0.00  0.00
  WS02004407WS02004409    1.00   0.06  0.00  0.00  0.94  0.00  0.00  0.00  0.80  0.00
  WS02004406WS02004407    1.00   0.00  0.06  0.00  0.94  0.00  0.00  0.00  0.00  0.00
  WS02004405WS02004406    1.00   0.00  0.00  0.00  1.00  0.00  0.00  0.00  0.02  0.00
  WS02004404WS02004405    1.00   0.00  0.00  0.00  1.00  0.00  0.00  0.00  0.00  0.00
  WS02004403WS02004404    1.00   0.00  0.03  0.00  0.97  0.00  0.00  0.00  0.02  0.00
  WS02004402WS02004403    1.00   0.03  0.00  0.00  0.97  0.00  0.00  0.00  0.00  0.00
  WS02004139WS02001211    1.00   0.00  0.00  0.00  0.99  0.00  0.01  0.00  0.00  0.00
  WS02004138WS02004139    1.00   0.00  0.00  0.00  0.98  0.01  0.00  0.00  1.00  0.00
  WS02003067WS02003066    1.00   0.08  0.01  0.00  0.92  0.00  0.00  0.00  0.00  0.00
  WS02001213WS02003059    1.00   0.00  0.01  0.00  0.99  0.00  0.00  0.00  0.00  0.00
  WS02001212WS02001213    1.00   0.01  0.00  0.00  0.63  0.00  0.36  0.00  0.00  0.00
  WS02001211WS02001212    1.00   0.00  0.01  0.00  0.99  0.00  0.00  0.00  0.00  0.00
  WS02003072WS02003073    1.00   0.00  0.00  0.00  0.00  0.00  0.00  1.00  0.00  0.00
  WS02003069WS02003072    1.00   0.00  0.00  0.00  0.99  0.01  0.00  0.00  0.32  0.00
  WS02003060WS02003069    1.00   0.00  0.00  0.00  0.98  0.02  0.00  0.00  0.18  0.00
  WS02003059WS02003060    1.00   0.00  0.00  0.00  0.99  0.01  0.00  0.00  0.01  0.00
  HS02004901HS02004770    1.00   0.05  0.00  0.00  0.95  0.00  0.00  0.00  0.03  0.00
  HS02004876HS02004881    1.00   0.02  0.00  0.00  0.98  0.00  0.00  0.00  0.00  0.00
  HS02004870HS02004876    1.00   0.01  0.00  0.00  0.99  0.00  0.00  0.00  0.95  0.00
  HS02004842HS02004848    1.00   0.00  0.05  0.00  0.95  0.00  0.00  0.00  0.70  0.00
  HS02004837HS02004842    1.00   0.00  0.00  0.00  0.99  0.01  0.00  0.00  0.11  0.00
  HS02004830HS02004837    1.00   0.00  0.00  0.00  1.00  0.00  0.00  0.00  0.99  0.00
  HS02004824HS02004830    1.00   0.00  0.00  0.00  1.00  0.00  0.00  0.00  0.00  0.00
  HS02004817HS02004824    1.00   0.00  0.00  0.00  1.00  0.00  0.00  0.00  1.00  0.00
  HS02004770HS02004777    1.00   0.00  0.05  0.00  0.95  0.00  0.00  0.00  0.08  0.00
  HS02004799HS02004480    1.00   0.01  0.02  0.00  0.94  0.00  0.04  0.00  0.00  0.00
  HS02004792HS02004799    1.00   0.00  0.00  0.00  0.98  0.02  0.00  0.00  0.98  0.00
  HS02004788HS02004792    1.00   0.00  0.00  0.00  0.98  0.02  0.00  0.00  0.98  0.00
  HS02004785HS02004788    1.00   0.00  0.00  0.00  1.00  0.00  0.00  0.00  0.00  0.00
  HS02004777HS02004785    1.00   0.00  0.00  0.00  1.00  0.00  0.00  0.00  0.22  0.00
  HS02004480HS02004478    1.00   0.05  0.00  0.00  0.73  0.00  0.00  0.21  0.00  0.00
  HS02004479HS02004480    1.00   0.03  0.00  0.00  0.97  0.00  0.00  0.00  0.16  0.00
  HS02004862HS02004870    1.00   0.00  0.00  0.00  1.00  0.00  0.00  0.00  0.05  0.00
  HS02004848HS02004852    1.00   0.05  0.00  0.00  0.95  0.00  0.00  0.00  0.69  0.00
  HS02004856HS02004862    1.00   0.00  0.07  0.00  0.93  0.00  0.00  0.00  0.73  0.00
  HS02004852HS02004856    1.00   0.05  0.01  0.00  0.94  0.00  0.00  0.00  0.82  0.00
  HS02004802HS02004478    1.00   0.05  0.01  0.00  0.95  0.00  0.00  0.00  0.00  0.00
  HS02004478WS02006287    1.00   0.06  0.00  0.00  0.94  0.00  0.00  0.00  0.81  0.00
  HS02004817HS02004807    1.00   0.00  0.05  0.00  0.95  0.00  0.00  0.00  0.00  0.00
  HS02004807HS02004802    1.00   0.05  0.00  0.00  0.95  0.00  0.00  0.00  0.01  0.00
  YS02001759YS02001757    1.00   0.00  0.00  0.00  1.00  0.00  0.00  0.00  0.17  0.00
  YS02001762YS02001759    1.00   0.00  0.00  0.00  1.00  0.00  0.00  0.00  0.05  0.00
  YS02001765YS02001762    1.00   0.00  0.00  0.00  1.00  0.00  0.00  0.00  0.23  0.00
  YS02001770YS02001767    1.00   0.00  0.00  0.00  1.00  0.00  0.00  0.00  0.00  0.00
  YS02001774YS02001770    1.00   0.00  0.05  0.00  0.94  0.00  0.00  0.00  0.06  0.00
  YS02001779YS02001774    1.00   0.00  0.00  0.00  1.00  0.00  0.00  0.00  0.28  0.00
  YS02001649YS02001757    1.00   0.00  0.00  0.00  1.00  0.00  0.00  0.00  0.20  0.00
  YS02001767YS02001765    1.00   0.00  0.00  0.00  1.00  0.00  0.00  0.00  0.01  0.00
  YS02006561YS02001783    1.00   0.08  0.00  0.00  0.00  0.92  0.00  0.00  0.72  0.00
  YS02001783YS02001784    1.00   0.00  0.08  0.00  0.92  0.00  0.00  0.00  0.06  0.00
  YS02001784YS02001785    1.00   0.00  0.00  0.00  1.00  0.00  0.00  0.00  0.26  0.00
  YS02001788YS02001790    1.00   0.00  0.00  0.00  0.08  0.92  0.00  0.00  0.95  0.00
  YS02001790YS02001791    1.00   0.00  0.00  0.00  0.02  0.98  0.00  0.00  0.40  0.00
  YS02001791YS02001793    1.00   0.00  0.00  0.00  0.00  1.00  0.00  0.00  0.00  0.00
  YS02001910YS02001907    1.00   0.00  0.00  0.00  0.98  0.00  0.00  0.02  0.13  0.00
  YS02001786YS02001788    1.00   0.00  0.00  0.00  0.08  0.92  0.00  0.00  0.00  0.00
  YS02001915YS02001910    1.00   0.00  0.00  0.00  1.00  0.00  0.00  0.00  0.25  0.00
  YS02001918YS02001915    1.00   0.00  0.01  0.00  0.98  0.01  0.00  0.00  0.80  0.00
  YS02001923YS02001920    1.00   0.00  0.00  0.00  1.00  0.00  0.00  0.00  1.00  0.00
  YS02001926YS02001923    1.00   0.00  0.03  0.00  0.00  0.00  0.97  0.00  0.00  0.00
  YS02001929YS02001926    1.00   0.00  0.05  0.00  0.95  0.00  0.00  0.00  0.86  0.00
  YS02001920YS02001918    1.00   0.00  0.01  0.00  0.99  0.00  0.00  0.00  0.00  0.00
  YS02001629YS02163301    1.00   0.07  0.00  0.00  0.93  0.00  0.00  0.00  0.00  0.00
  YS02001619YS02001622    1.00   0.04  0.00  0.00  0.96  0.00  0.00  0.00  0.00  0.00
  YS02001622YS02001625    1.00   0.05  0.00  0.00  0.95  0.00  0.00  0.00  0.14  0.00
  YS02001625YS02001629    1.00   0.05  0.03  0.00  0.91  0.00  0.02  0.00  0.00  0.00
  YS02163301YS02001633    1.00   0.00  0.07  0.00  0.93  0.00  0.00  0.00  0.00  0.00
  YS02163601YS02164001    1.00   0.00  0.03  0.00  0.97  0.00  0.00  0.00  0.00  0.00
  YS02164001YS02001641    1.00   0.01  0.02  0.00  0.97  0.00  0.00  0.00  0.07  0.00
  YS02001641YS02001644    1.00   0.00  0.01  0.00  0.99  0.00  0.00  0.00  0.00  0.00
  YS02001647YS02001649    1.00   0.00  0.07  0.00  0.92  0.00  0.00  0.00  0.01  0.00
  YS02006553YS02006556    1.00   0.02  0.00  0.00  0.98  0.00  0.00  0.00  0.03  0.00
  YS02006556YS02006558    1.00   0.00  0.01  0.00  0.99  0.00  0.00  0.00  0.00  0.00
  YSB6556YSB1171          1.00   0.03  0.02  0.00  0.96  0.00  0.00  0.00  0.00  0.00
  YS02001907YS02006553    1.00   0.00  0.02  0.00  0.98  0.00  0.00  0.00  0.00  0.00
  YS02006558YS02006561    1.00   0.08  0.00  0.00  0.00  0.92  0.00  0.00  0.71  0.00
  YS02001633YS02163601    1.00   0.00  0.01  0.00  0.99  0.00  0.00  0.00  0.20  0.00
  YS02001644YS02001647    1.00   0.00  0.08  0.00  0.92  0.00  0.00  0.00  0.00  0.00
  YS02001745YS02001748    1.00   0.00  0.00  0.00  0.00  0.05  0.00  0.95  0.04  0.00
  YS02001748YS02001751    1.00   0.00  0.00  0.00  0.97  0.03  0.00  0.00  0.50  0.00
  YS02001751YS02001754    1.00   0.00  0.00  0.00  0.92  0.00  0.00  0.08  0.02  0.00
  YS02001754YS02001757    1.00   0.00  0.00  0.00  0.99  0.01  0.00  0.00  0.27  0.00
  YS02001882YS02001884    1.00   0.06  0.00  0.00  0.93  0.00  0.00  0.00  0.00  0.00
  YS02001884YS02001887    1.00   0.03  0.01  0.00  0.96  0.00  0.00  0.00  0.00  0.00
  YS02001890YS02001895    1.00   0.00  0.07  0.00  0.93  0.00  0.00  0.00  0.00  0.00
  YS02001895YS02001898    1.00   0.07  0.00  0.00  0.92  0.00  0.01  0.00  0.00  0.00
  YS02001898YS02001901    1.00   0.07  0.01  0.00  0.93  0.00  0.00  0.00  0.02  0.00
  YS02001901YS02001904    1.00   0.07  0.00  0.00  0.93  0.00  0.00  0.00  0.00  0.00
  YS02001904YS02001907    1.00   0.00  0.06  0.00  0.93  0.00  0.00  0.00  0.00  0.00
  YS02001887YS02001890    1.00   0.00  0.00  0.00  0.98  0.00  0.02  0.00  0.00  0.00
  YS02001652YS02001649    1.00   0.00  0.00  0.00  1.00  0.00  0.00  0.00  0.27  0.00
  YS02001655YS02001652    1.00   0.00  0.00  0.00  0.92  0.00  0.00  0.08  0.03  0.00
  YS02001658YS02001655    1.00   0.00  0.06  0.00  0.91  0.03  0.00  0.00  0.67  0.00
  YS02001661YS02001658    1.00   0.06  0.00  0.00  0.05  0.89  0.00  0.00  0.72  0.00
  YS02001664YS02001661    1.00   0.04  0.00  0.00  0.96  0.00  0.00  0.00  0.86  0.00
  YSB1154YSB6556          1.00   0.04  0.00  0.00  0.96  0.00  0.00  0.00  0.02  0.00
  YSB1174YSB1171          1.00   0.03  0.01  0.00  0.96  0.00  0.00  0.00  0.00  0.00
  YSB1171HS02004479       1.00   0.03  0.00  0.00  0.97  0.00  0.00  0.00  0.13  0.00
  HS02004881HS02006253    1.00   0.03  0.00  0.00  0.63  0.01  0.00  0.32  0.43  0.00
  YS02001793JiankangQianchi    1.00   0.00  0.00  0.00  0.20  0.80  0.00  0.00  0.18  0.00
  YS02001757CaochengTiaoxuchi    1.00   0.00  0.09  0.00  0.91  0.00  0.00  0.00  0.00  0.00
  WSF200WS02003060        1.00   0.00  0.07  0.00  0.64  0.29  0.00  0.00  0.35  0.00
  1                       1.00   0.00  0.00  0.00  0.00  1.00  0.00  0.00  0.40  0.00
  2                       1.00   0.76  0.00  0.00  0.00  0.24  0.00  0.00  0.06  0.00
  3                       1.00   0.29  0.00  0.00  0.00  0.71  0.00  0.00  0.16  0.00
  4                       1.00   1.00  0.00  0.00  0.00  0.00  0.00  0.00  0.00  0.00
  
  
  *************************
  Conduit Surcharge Summary
  *************************
  
  ----------------------------------------------------------------------------
                                                           Hours        Hours 
                         --------- Hours Full --------   Above Full   Capacity
  Conduit                Both Ends  Upstream  Dnstream   Normal Flow   Limited
  ----------------------------------------------------------------------------
  WS02006229WS02006228        1.04      1.16      1.04      2.50         1.04
  WS02006256WS02006235        5.33      5.33      7.49      2.98         0.01
  WS02006252WS02006251        0.73      0.73      1.38      1.21         0.01
  WS02006251WS02006249        0.01      0.01      0.01      0.73         0.01
  WS02006249WS02006248        0.01      0.01      0.01      2.78         0.01
  WS02006247WS02006245        0.01      0.01      0.01      3.45         0.01
  WS02006243WS02006242        0.01      0.01      0.52      0.01         0.01
  WS02006242WS02006240        0.02      0.02      0.87      1.49         0.01
  WS02006240WS02006239        0.07      0.07      0.14      0.10         0.01
  WS02006239WS02006238        0.66      0.66      0.73      0.27         0.19
  WS02006238WS02006235        0.56      0.56      0.97      0.01         0.01
  WS02006235WS02006234        0.01      0.01      0.43      5.35         0.01
  WS02006234WS02006232        0.11      0.11      1.05      0.01         0.01
  WS02006232WS02006231        0.01      0.01      1.05      0.01         0.01
  WS02006231WS02006230        0.01      0.01      0.01      5.31         0.01
  WS02006230WS02006229        1.63      2.11      1.63      5.38         1.63
  WS02006228WS02006109        1.11      1.40      1.11      3.76         1.11
  WS02006111WS02006112        0.01      0.01      2.71      0.01         0.01
  WS02006110WS02006113        0.01      0.01      1.25      0.01         0.01
  WS02006109WS02006110        0.01      0.01      1.40      0.01         0.01
  WS02004404WS02004405        0.01      0.01      0.01      5.47         0.01
  WS02003072WS02003073        0.01      0.01      0.01      3.64         0.01
  YS02001793JiankangQianchi        0.01      0.01      0.41      0.01         0.01
  3                           0.01      0.01      0.01      0.01         0.01
  
  
  ***************
  Pumping Summary
  ***************
  
  ---------------------------------------------------------------------------------------------------------
                                                  Min       Avg       Max     Total     Power    % Time Off
                        Percent   Number of      Flow      Flow      Flow    Volume     Usage    Pump Curve
  Pump                 Utilized   Start-Ups       LPS       LPS       LPS  10^6 ltr     Kw-hr    Low   High
  ---------------------------------------------------------------------------------------------------------
  CC-Pump-1               57.75           4      0.00    140.57    200.00     2.173      9.31    0.0  100.0
  CC-Pump-2               36.48           5      0.00    120.52    200.00     1.259      5.65    0.0  100.0
  JK-Pump-1               76.59           8      0.00     93.15    300.00     1.427     26.71    0.0    0.0
  JK-Pump-2               89.36           6      0.00     91.80    300.00     1.682     31.87    0.0    0.0
  XR-Pump-1               89.35           9      0.00     70.67     95.00     1.824     14.83    0.0    0.0
  XR-Pump-2               74.48           8      0.00     57.41     95.00     1.283     11.65    0.0    0.0
  XR-Pump-3               78.73           5      0.00     70.67     95.00     1.510     12.37    0.0    0.0
  XR-Pump-4               57.45           7      0.00     63.98     95.00     1.026      9.23    0.0    0.0
  

  Analysis begun on:  Tue Dec 21 11:11:58 2021
  Analysis ended on:  Tue Dec 21 11:12:00 2021
  Total elapsed time: 00:00:02