
  EPA STORM WATER MANAGEMENT MODEL - VERSION 5.1 (Build 5.3.0.dev0)
  --------------------------------------------------------------

  WARNING 04: minimum elevation drop used for Conduit WS02004404WS02004405
  WARNING 03: negative offset ignored for Link YS02001904YS02001907
  
  *********************************************************
  NOTE: The summary statistics displayed in this report are
  based on results found at every computational time step,  
  not just on results from each reporting time step.
  *********************************************************
  
  ****************
  Analysis Options
  ****************
  Flow Units ............... LPS
  Process Models:
    Rainfall/Runoff ........ YES
    RDII ................... NO
    Snowmelt ............... NO
    Groundwater ............ NO
    Flow Routing ........... YES
    Ponding Allowed ........ NO
    Water Quality .......... NO
  Infiltration Method ...... HORTON
  Flow Routing Method ...... DYNWAVE
  Surcharge Method ......... EXTRAN
  Starting Date ............ 08/28/2015 08:00:00
  Ending Date .............. 08/28/2015 15:50:00
  Antecedent Dry Days ...... 8.0
  Report Time Step ......... 00:01:00
  Wet Time Step ............ 00:01:00
  Dry Time Step ............ 00:01:00
  Routing Time Step ........ 5.00 sec
  Variable Time Step ....... YES
  Maximum Trials ........... 8
  Number of Threads ........ 4
  Head Tolerance ........... 0.001500 m
  
  
  **************************        Volume         Depth
  Runoff Quantity Continuity     hectare-m            mm
  **************************     ---------       -------
  Total Precipitation ......         5.493        12.027
  Evaporation Loss .........         0.000         0.000
  Infiltration Loss ........         1.412         3.091
  Surface Runoff ...........         3.074         6.729
  Final Storage ............         1.009         2.209
  Continuity Error (%) .....        -0.014
  
  
  **************************        Volume        Volume
  Flow Routing Continuity        hectare-m      10^6 ltr
  **************************     ---------     ---------
  Dry Weather Inflow .......         0.616         6.165
  Wet Weather Inflow .......         3.072        30.724
  Groundwater Inflow .......         0.000         0.000
  RDII Inflow ..............         0.000         0.000
  External Inflow ..........         0.102         1.024
  External Outflow .........         2.081        20.813
  Flooding Loss ............         1.260        12.602
  Evaporation Loss .........         0.000         0.000
  Exfiltration Loss ........         0.000         0.000
  Initial Stored Volume ....         0.076         0.761
  Final Stored Volume ......         0.604         6.039
  Continuity Error (%) .....        -2.021
  
  
  *************************
  Highest Continuity Errors
  *************************
  Node HS02004842 (16.39%)
  Node YS02001884 (11.07%)
  Node JK-storage (-7.12%)
  Node YSB1171 (3.16%)
  Node HS02004817 (3.01%)
  
  
  ***************************
  Time-Step Critical Elements
  ***************************
  Link WS02006252WS02006251 (47.52%)
  Link 3 (43.75%)
  Link WS02006238WS02006235 (3.37%)
  Link WS02004404WS02004405 (1.01%)
  
  
  ********************************
  Highest Flow Instability Indexes
  ********************************
  Link YS02163301YS02001633 (39)
  Link YS02001619YS02001622 (39)
  Link YS02001629YS02163301 (38)
  Link YS02163601YS02164001 (38)
  Link YS02164001YS02001641 (35)
  
  
  *************************
  Routing Time Step Summary
  *************************
  Minimum Time Step           :     0.50 sec
  Average Time Step           :     0.75 sec
  Maximum Time Step           :     5.00 sec
  Percent in Steady State     :    -0.00
  Average Iterations per Step :     4.74
  Percent Not Converging      :    23.61
  
  
  ***************************
  Subcatchment Runoff Summary
  ***************************
  
  ------------------------------------------------------------------------------------------------------------------------------
                            Total      Total      Total      Total     Imperv       Perv      Total       Total     Peak  Runoff
                           Precip      Runon       Evap      Infil     Runoff     Runoff     Runoff      Runoff   Runoff   Coeff
  Subcatchment                 mm         mm         mm         mm         mm         mm         mm    10^6 ltr      LPS
  ------------------------------------------------------------------------------------------------------------------------------
  sub0                      12.03       0.00       0.00       0.84       9.92       0.00       9.92        0.01     2.03   0.825
  sub1                      12.03       0.00       0.00       1.32       9.45       0.00       9.45        0.06    13.40   0.786
  sub2                      12.03       0.00       0.00       4.45       6.67       0.00       6.67        0.06    12.40   0.555
  sub3                      12.03       0.00       0.00       4.45       6.63       0.00       6.63        0.15    27.80   0.552
  sub4                      12.03       0.00       0.00       1.32       9.30       0.00       9.30        0.19    33.44   0.773
  sub5                      12.03       0.00       0.00       0.84       9.87       0.00       9.87        0.11    23.84   0.821
  sub7                      12.03       0.00       0.00       1.08       9.69       0.00       9.69        0.03     7.67   0.806
  sub8                      12.03       0.00       0.00       1.08       9.68       0.00       9.68        0.06    14.05   0.805
  sub9                      12.03       0.00       0.00       1.08       9.68       0.00       9.68        0.05    10.50   0.805
  sub10                     12.03       0.00       0.00       0.96       9.77       0.00       9.77        0.11    23.44   0.813
  sub11                     12.03       0.00       0.00       0.96       9.79       0.00       9.79        0.11    26.14   0.814
  sub12                     12.03       0.00       0.00       1.56       9.28       0.00       9.28        0.08    19.99   0.771
  sub14                     12.03       0.00       0.00       1.08       9.68       0.00       9.68        0.09    20.64   0.805
  sub15                     12.03       0.00       0.00       3.61       7.44       0.00       7.44        0.13    28.31   0.619
  sub16                     12.03       0.00       0.00       3.97       7.14       0.00       7.14        0.07    18.12   0.594
  sub17                     12.03       0.00       0.00       3.85       7.24       0.00       7.24        0.06    14.90   0.602
  sub22                     12.03       0.00       0.00       5.17       6.07       0.00       6.07        0.38    88.71   0.504
  sub23                     12.03       0.00       0.00       4.45       6.71       0.00       6.71        0.32    74.74   0.558
  sub60                     12.03       0.00       0.00       1.44       7.74       0.00       7.74        2.35   221.95   0.644
  sub61                     12.03       0.00       0.00       2.04       7.85       0.00       7.85        2.42   262.11   0.653
  sub62                     12.03       0.00       0.00       0.96       8.54       0.00       8.54        2.63   273.68   0.710
  sub63                     12.03       0.00       0.00       3.49       6.87       0.00       6.87        2.08   239.63   0.571
  sub64                     12.03       0.00       0.00       1.80       7.43       0.00       7.43        2.26   211.47   0.618
  sub65                     12.03       0.00       0.00       1.56       7.55       0.00       7.55        2.32   215.23   0.628
  sub66                     12.03       0.00       0.00       3.49       6.37       0.00       6.37        1.95   191.04   0.530
  sub67                     12.03       0.00       0.00       0.96       9.00       0.00       9.00        2.78   332.67   0.749
  sub68                     12.03       0.00       0.00       1.68       8.26       0.00       8.26        2.54   285.76   0.687
  sub69                     12.03       0.00       0.00       1.80       8.55       0.00       8.55        2.00   265.64   0.711
  sub70                     12.03       8.73       0.00       6.95      11.44       0.11      11.55        2.64   261.84   0.556
  sub71                     12.03       0.00       0.00       0.96       8.33       0.00       8.33        1.97   195.24   0.692
  sub72                     12.03       0.00       0.00       0.84       6.67       0.00       6.67        1.36   105.11   0.555
  sub73                     12.03      11.24       0.00       7.83      12.57       0.08      12.65        2.97   255.46   0.544
  sub74                     12.03       0.00       0.00       9.02       2.55       0.00       2.55        1.02   143.98   0.212
  
  
  ******************
  Node Depth Summary
  ******************
  
  ---------------------------------------------------------------------------------
                                 Average  Maximum  Maximum  Time of Max    Reported
                                   Depth    Depth      HGL   Occurrence   Max Depth
  Node                 Type       Meters   Meters   Meters  days hr:min      Meters
  ---------------------------------------------------------------------------------
  WS02001211           JUNCTION     0.66     0.79     5.62     0  02:12        0.79
  WS02001212           JUNCTION     0.39     0.50     5.57     0  02:12        0.50
  WS02001213           JUNCTION     0.63     0.76     5.52     0  02:13        0.76
  WS02003069           JUNCTION     0.46     0.60     5.18     0  02:13        0.60
  WS02003072           JUNCTION     0.53     0.66     5.03     0  02:14        0.66
  WS02003073           JUNCTION     0.32     0.40     4.47     0  02:14        0.40
  WS02003060           JUNCTION     0.41     0.53     5.46     0  02:12        0.53
  WS02003066           JUNCTION     0.25     0.32     5.87     0  01:51        0.32
  WS02003059           JUNCTION     0.70     0.82     5.50     0  02:12        0.82
  WS02003067           JUNCTION     0.61     0.73     6.05     0  01:51        0.73
  WS02004401           JUNCTION     0.72     0.93     6.93     0  01:48        0.93
  WS02004402           JUNCTION     0.75     0.96     6.92     0  01:47        0.95
  WS02004403           JUNCTION     0.77     0.96     6.89     0  01:48        0.96
  WS02004404           JUNCTION     0.84     1.03     6.88     0  01:47        1.03
  WS02004406           JUNCTION     0.85     1.01     6.84     0  01:47        1.01
  WS02004409           JUNCTION     0.54     0.73     6.50     0  01:50        0.73
  WS02004410           JUNCTION     0.56     0.74     6.46     0  01:50        0.74
  WS02004411           JUNCTION     0.57     0.74     6.42     0  01:50        0.74
  WS02004412           JUNCTION     0.59     0.74     6.38     0  01:50        0.74
  WS02004413           JUNCTION     0.74     0.90     6.37     0  01:51        0.90
  WS02004405           JUNCTION     0.84     1.02     6.87     0  01:48        1.02
  WS02006109           JUNCTION     0.81     1.07     7.69     0  01:44        1.06
  WS02006110           JUNCTION     0.80     0.98     7.57     0  01:44        0.98
  WS02006111           JUNCTION     0.24     0.31     7.02     0  01:47        0.31
  WS02006112           JUNCTION     0.90     1.20     7.08     0  02:08        1.16
  WS02006113           JUNCTION     0.37     0.49     7.39     0  01:44        0.49
  WS02006115           JUNCTION     0.62     0.84     6.98     0  01:47        0.84
  WS02006116           JUNCTION     0.70     0.92     6.96     0  01:47        0.92
  WS02006230           JUNCTION     0.80     1.12     7.86     0  01:45        1.12
  WS02006231           JUNCTION     0.54     0.77     7.89     0  01:43        0.76
  WS02006232           JUNCTION     0.67     0.88     7.92     0  02:02        0.87
  WS02006234           JUNCTION     0.60     0.80     7.95     0  02:02        0.79
  WS02006235           JUNCTION     0.63     0.82     7.98     0  02:02        0.81
  WS02006238           JUNCTION     0.66     0.84     7.99     0  02:02        0.84
  WS02006240           JUNCTION     0.56     0.74     8.04     0  02:50        0.74
  WS02006242           JUNCTION     0.61     0.81     8.08     0  02:50        0.81
  WS02006243           JUNCTION     0.49     0.70     8.12     0  02:50        0.70
  WS02006245           JUNCTION     0.47     0.67     8.15     0  02:50        0.67
  WS02006247           JUNCTION     0.48     0.68     8.18     0  02:50        0.67
  WS02006248           JUNCTION     0.42     0.61     8.20     0  02:50        0.61
  WS02006249           JUNCTION     0.45     0.62     8.22     0  02:50        0.62
  WS02006239           JUNCTION     0.61     0.80     8.01     0  02:02        0.80
  WS02006251           JUNCTION     0.44     0.65     8.32     0  02:50        0.65
  WS02006252           JUNCTION     0.38     0.59     8.83     0  06:54        0.59
  WS02006253           JUNCTION     0.47     0.68     8.32     0  02:50        0.67
  WS02006256           JUNCTION     1.07     1.21     8.14     0  02:50        1.21
  WS02004138           JUNCTION     0.15     0.19     7.44     0  01:00        0.19
  WS02004407           JUNCTION     0.24     0.32     6.63     0  01:48        0.32
  WS02006228           JUNCTION     0.82     1.13     7.78     0  01:44        1.13
  WS02006229           JUNCTION     0.80     1.13     7.83     0  01:44        1.13
  WS02006280           JUNCTION     0.07     0.19     8.46     0  01:42        0.19
  WS02006284           JUNCTION     0.37     0.54     8.94     0  01:42        0.54
  WS02006287           JUNCTION     0.10     0.28     9.23     0  01:42        0.28
  WSF200               JUNCTION     0.24     0.34     5.57     0  02:07        0.34
  HS02004901           JUNCTION     0.13     0.28    10.10     0  01:39        0.28
  HS02004881           JUNCTION     0.01     0.03     9.06     0  01:43        0.03
  HS02004876           JUNCTION     0.05     0.12     9.15     0  01:43        0.12
  HS02004870           JUNCTION     0.02     0.06     9.35     0  01:43        0.06
  HS02004862           JUNCTION     0.02     0.07     9.45     0  01:44        0.07
  HS02004856           JUNCTION     0.08     0.12     9.55     0  01:44        0.12
  HS02004852           JUNCTION     0.01     0.04     9.56     0  01:52        0.04
  HS02004848           JUNCTION     0.01     0.04     9.64     0  01:51        0.04
  HS02004842           JUNCTION     0.33     0.37     9.64     0  01:51        0.37
  HS02004837           JUNCTION     0.03     0.06     9.64     0  01:51        0.06
  HS02004830           JUNCTION     0.04     0.08     9.55     0  01:45        0.08
  HS02004824           JUNCTION     0.02     0.06     9.46     0  01:54        0.06
  HS02004817           JUNCTION     0.45     0.59     9.43     0  01:43        0.59
  HS02004807           JUNCTION     0.13     0.26     9.43     0  01:43        0.26
  HS02004802           JUNCTION     0.17     0.30     9.42     0  01:43        0.29
  HS02004799           JUNCTION     0.13     0.33     9.54     0  01:40        0.33
  HS02004792           JUNCTION     0.04     0.14     9.66     0  01:40        0.14
  HS02004788           JUNCTION     0.03     0.10    10.00     0  01:40        0.10
  HS02004785           JUNCTION     0.05     0.17    10.07     0  01:40        0.17
  HS02004777           JUNCTION     0.15     0.30    10.10     0  01:39        0.30
  HS02004770           JUNCTION     0.12     0.27    10.10     0  01:39        0.27
  HS02004480           JUNCTION     0.09     0.27     9.51     0  01:41        0.27
  HS02004479           JUNCTION     0.12     0.30     9.51     0  01:40        0.30
  HS02004478           JUNCTION     0.07     0.18     9.41     0  01:42        0.18
  YS02001745           JUNCTION     0.71     0.88     8.39     0  03:02        0.87
  YS02001748           JUNCTION     1.12     2.27     9.35     0  02:06        1.31
  YS02001751           JUNCTION     1.31     2.20     9.08     0  02:02        1.52
  YS02001754           JUNCTION     1.56     2.12     8.73     0  02:02        1.80
  YS02001762           JUNCTION     1.77     2.03     8.43     0  02:56        2.02
  YS02001765           JUNCTION     1.72     1.98     8.43     0  02:50        1.97
  YS02001767           JUNCTION     1.68     1.93     8.42     0  02:42        1.92
  YS02001770           JUNCTION     1.68     1.95     8.44     0  02:02        1.90
  YS02001774           JUNCTION     1.75     2.02     8.44     0  02:02        1.96
  YS02001779           JUNCTION     1.49     1.68     8.37     0  02:02        1.68
  YS02001882           JUNCTION     0.52     1.37     8.09     0  02:29        1.36
  YS02001884           JUNCTION     0.61     1.47     8.09     0  02:30        1.45
  YS02001759           JUNCTION     1.80     2.07     8.43     0  02:56        2.06
  YS02001887           JUNCTION     0.69     1.55     8.09     0  02:30        1.54
  YS02001890           JUNCTION     0.72     1.58     8.08     0  02:30        1.56
  YS02001898           JUNCTION     0.49     1.34     8.07     0  02:28        1.32
  YS02001901           JUNCTION     0.61     1.46     8.07     0  02:30        1.44
  YS02001904           JUNCTION     0.58     1.44     8.07     0  02:29        1.42
  YS02001907           JUNCTION     0.92     1.77     8.06     0  02:29        1.76
  YS02001910           JUNCTION     0.70     1.56     8.07     0  02:30        1.55
  YS02001915           JUNCTION     0.50     1.35     8.07     0  02:29        1.34
  YS02001918           JUNCTION     0.25     1.00     8.06     0  02:30        0.99
  YS02001619           JUNCTION     1.27     1.61     8.54     0  02:01        1.50
  YS02001629           JUNCTION     1.63     1.85     8.40     0  02:03        1.85
  YS02001641           JUNCTION     1.73     1.96     8.40     0  02:08        1.93
  YS02001644           JUNCTION     1.74     1.92     8.35     0  02:02        1.92
  YS02001652           JUNCTION     1.58     2.16     8.76     0  02:02        1.97
  YS02001655           JUNCTION     1.34     2.20     9.05     0  01:57        1.86
  YS02001920           JUNCTION     0.35     1.05     8.06     0  02:30        1.05
  YS02001923           JUNCTION     0.19     0.80     8.06     0  02:29        0.80
  YS02001926           JUNCTION     0.24     0.62     8.06     0  02:30        0.62
  YS02001929           JUNCTION     0.12     0.37     8.06     0  02:31        0.36
  YS02001658           JUNCTION     1.06     2.30     9.44     0  02:02        1.72
  YS02001661           JUNCTION     0.83     2.38     9.78     0  02:28        1.50
  YS02001664           JUNCTION     0.35     0.57     8.50     0  02:22        0.56
  YS02001622           JUNCTION     1.30     1.62     8.52     0  02:02        1.51
  YS02001633           JUNCTION     1.72     1.99     8.44     0  02:08        1.93
  YS02001649           JUNCTION     1.77     2.05     8.44     0  02:02        2.05
  YS02001757           JUNCTION     1.90     2.18     8.44     0  02:06        2.16
  YS02001895           JUNCTION     0.48     1.33     8.08     0  02:29        1.32
  YS02001625           JUNCTION     1.58     1.78     8.38     0  02:02        1.78
  YS02163301           JUNCTION     1.66     1.92     8.44     0  02:08        1.87
  YS02163601           JUNCTION     1.78     2.04     8.44     0  02:08        1.98
  YS02164001           JUNCTION     1.71     1.97     8.43     0  02:08        1.91
  YS02001647           JUNCTION     1.56     1.83     8.44     0  02:03        1.79
  YSB1154              JUNCTION     0.26     0.45     9.51     0  01:40        0.45
  YSB6556              JUNCTION     0.16     0.34     9.51     0  01:40        0.34
  YSB1174              JUNCTION     0.21     0.40     9.51     0  01:41        0.40
  YSB1171              JUNCTION     0.41     0.61     9.51     0  01:40        0.61
  YS02006553           JUNCTION     0.92     1.76     8.04     0  02:29        1.75
  YS02006561           JUNCTION     0.30     0.93     7.59     0  02:29        0.92
  YS02006556           JUNCTION     0.88     1.71     8.02     0  02:29        1.70
  YS02006558           JUNCTION     0.93     1.75     8.02     0  02:29        1.74
  YS02001783           JUNCTION     0.54     1.55     7.70     0  02:00        1.33
  YS02001784           JUNCTION     0.56     1.72     7.79     0  02:00        1.29
  YS02001786           JUNCTION     0.51     2.13     8.16     0  02:00        1.16
  YS02001788           JUNCTION     0.46     1.76     7.74     0  02:00        1.06
  YS02001790           JUNCTION     0.58     1.96     7.60     0  01:58        1.24
  YS02001791           JUNCTION     0.57     1.61     7.08     0  02:00        1.25
  YS02001793           JUNCTION     0.79     1.96     6.80     0  02:00        1.79
  WS02004139           JUNCTION     0.60     0.73     5.64     0  02:12        0.73
  WSC                  OUTFALL      0.32     0.40     1.07     0  02:15        0.40
  3                    OUTFALL      0.09     0.21     6.21     0  02:50        0.21
  4                    OUTFALL      0.02     0.12     7.12     0  02:50        0.12
  5                    OUTFALL      0.00     0.00     5.00     0  00:00        0.00
  JK-storage           STORAGE      2.77     5.80     6.60     0  01:59        5.80
  CC-storage           STORAGE      1.13     1.38     8.38     0  03:03        1.38
  XR-storage           STORAGE      6.86     7.72     5.72     0  02:28        7.72
  
  
  *******************
  Node Inflow Summary
  *******************
  
  -------------------------------------------------------------------------------------------------
                                  Maximum  Maximum                  Lateral       Total        Flow
                                  Lateral    Total  Time of Max      Inflow      Inflow     Balance
                                   Inflow   Inflow   Occurrence      Volume      Volume       Error
  Node                 Type           LPS      LPS  days hr:min    10^6 ltr    10^6 ltr     Percent
  -------------------------------------------------------------------------------------------------
  WS02001211           JUNCTION      7.35   387.89     0  05:29       0.207        7.14       0.304
  WS02001212           JUNCTION      0.00   388.10     0  05:29           0        7.12       0.189
  WS02001213           JUNCTION      0.00   388.45     0  05:30           0        7.11       0.246
  WS02003069           JUNCTION      0.32   985.40     0  02:13     0.00902        16.7       0.142
  WS02003072           JUNCTION      0.00   985.19     0  02:13           0        16.6       0.183
  WS02003073           JUNCTION      1.82   987.29     0  02:14      0.0514        16.7       0.199
  WS02003060           JUNCTION     16.53   984.69     0  02:12       0.466        16.7       0.136
  WS02003066           JUNCTION      0.00   627.14     0  01:51           0        9.16       0.050
  WS02003059           JUNCTION      0.00   389.12     0  05:30           0        7.09       0.416
  WS02003067           JUNCTION      0.00   627.03     0  01:51           0        9.17       0.104
  WS02004401           JUNCTION      0.00   632.88     0  01:46           0        9.41       0.231
  WS02004402           JUNCTION      0.00   633.17     0  01:48           0        9.38       0.218
  WS02004403           JUNCTION      0.00   631.82     0  01:48           0        9.36       0.198
  WS02004404           JUNCTION      0.16   631.14     0  01:48     0.00457        9.35       0.149
  WS02004406           JUNCTION      0.00   630.96     0  01:48           0        9.32       0.363
  WS02004409           JUNCTION      0.00   630.83     0  01:48           0        9.28       0.180
  WS02004410           JUNCTION      0.00   628.81     0  01:49           0        9.26       0.203
  WS02004411           JUNCTION      0.00   627.67     0  01:50           0        9.24       0.208
  WS02004412           JUNCTION      0.00   627.39     0  01:50           0        9.22       0.224
  WS02004413           JUNCTION      0.00   627.12     0  01:50           0         9.2       0.332
  WS02004405           JUNCTION      0.04   631.59     0  01:47     0.00107        9.34       0.223
  WS02006109           JUNCTION      1.23   624.33     0  01:45      0.0347        9.47       0.212
  WS02006110           JUNCTION      0.00   624.35     0  01:45           0        9.45       0.224
  WS02006111           JUNCTION      0.00   654.25     0  01:44           0        9.42       0.048
  WS02006112           JUNCTION     14.90   643.86     0  01:45      0.0621        9.48       0.316
  WS02006113           JUNCTION      0.00   624.66     0  01:45           0        9.43       0.104
  WS02006115           JUNCTION      0.00   649.24     0  01:45           0        9.45       0.225
  WS02006116           JUNCTION      0.00   635.28     0  01:46           0        9.42       0.196
  WS02006230           JUNCTION     10.28   402.41     0  04:40        0.29        7.61       0.170
  WS02006231           JUNCTION      0.00   392.30     0  04:40           0        7.33       0.142
  WS02006232           JUNCTION      0.00   392.30     0  04:40           0        7.34       0.218
  WS02006234           JUNCTION      0.00   392.40     0  04:40           0        7.35       0.112
  WS02006235           JUNCTION      0.00   392.59     0  04:34           0        7.39       0.142
  WS02006238           JUNCTION      0.00   328.46     0  06:10           0        5.29       0.144
  WS02006240           JUNCTION      0.00   332.23     0  06:10           0        5.28       0.222
  WS02006242           JUNCTION      0.00   335.49     0  06:11           0        5.28       0.278
  WS02006243           JUNCTION      0.00   335.68     0  06:11           0        5.28       0.006
  WS02006245           JUNCTION      0.00   341.28     0  04:31           0        5.29       0.179
  WS02006247           JUNCTION      0.00   347.78     0  04:31           0        5.29       0.130
  WS02006248           JUNCTION      0.00   353.68     0  04:30           0         5.3       0.082
  WS02006249           JUNCTION      0.00   421.67     0  02:50           0        5.68       0.174
  WS02006239           JUNCTION      0.00   330.43     0  06:10           0        5.28       0.211
  WS02006251           JUNCTION      0.08   424.12     0  02:50     0.00217        5.71       0.156
  WS02006252           JUNCTION      0.00   400.00     0  04:30           0        5.33       0.008
  WS02006253           JUNCTION      2.03    76.41     0  01:43     0.00803       0.379       0.978
  WS02006256           JUNCTION      0.00   599.99     0  05:00           0        5.94       0.047
  WS02004138           JUNCTION      0.00   380.00     0  00:20           0        6.95       0.054
  WS02004407           JUNCTION      0.00   631.26     0  01:48           0        9.28       0.081
  WS02006228           JUNCTION      0.00   623.18     0  01:45           0        9.45       0.152
  WS02006229           JUNCTION      0.00   622.29     0  01:44           0        9.46       0.142
  WS02006280           JUNCTION      0.00   366.28     0  01:42           0        1.87       0.003
  WS02006284           JUNCTION      0.10   366.31     0  01:42      0.0027        1.87       0.024
  WS02006287           JUNCTION      0.00   366.22     0  01:42           0        1.87       0.038
  WSF200               JUNCTION      0.00   627.22     0  01:51           0        9.16       0.048
  HS02004901           JUNCTION     18.12    18.12     0  01:36      0.0747      0.0749       2.402
  HS02004881           JUNCTION      7.67    74.61     0  01:43      0.0326       0.352       0.118
  HS02004876           JUNCTION     13.40    67.33     0  01:43      0.0628        0.32       0.168
  HS02004870           JUNCTION     14.05    54.07     0  01:43      0.0618       0.257       0.041
  HS02004862           JUNCTION     12.60    40.55     0  01:44      0.0678       0.196       0.087
  HS02004856           JUNCTION     10.50    27.98     0  01:43      0.0465       0.129       1.123
  HS02004852           JUNCTION      0.00    17.93     0  01:51           0      0.0829       0.064
  HS02004848           JUNCTION     27.80    27.80     0  01:53       0.149       0.149       0.029
  HS02004842           JUNCTION      0.00    10.09     0  01:58           0      0.0794      19.597
  HS02004837           JUNCTION     29.79    38.22     0  01:51       0.287       0.353       0.229
  HS02004830           JUNCTION      0.15    38.36     0  01:51     0.00423       0.344       0.360
  HS02004824           JUNCTION     33.49    71.74     0  01:54       0.195       0.538       0.100
  HS02004817           JUNCTION      0.60    72.33     0  01:54      0.0169       0.554       3.103
  HS02004807           JUNCTION     26.14    95.63     0  01:52       0.114       0.651       0.671
  HS02004802           JUNCTION      0.00    95.92     0  01:53           0       0.649       0.612
  HS02004799           JUNCTION     20.64   230.90     0  01:40      0.0921        1.05       0.259
  HS02004792           JUNCTION     88.99   210.33     0  01:39       0.391       0.955       0.041
  HS02004788           JUNCTION     29.98   122.04     0  01:40       0.175       0.565       0.068
  HS02004785           JUNCTION      0.15    92.14     0  01:39     0.00423       0.391       0.126
  HS02004777           JUNCTION      0.03    92.19     0  01:38    0.000846       0.391       1.344
  HS02004770           JUNCTION     74.74    92.54     0  01:38        0.32       0.393       0.790
  HS02004480           JUNCTION      0.00   273.94     0  01:41           0        1.24       0.088
  HS02004479           JUNCTION      0.00    43.17     0  01:41           0       0.201       0.365
  HS02004478           JUNCTION      0.00   366.17     0  01:42           0        1.87       0.020
  YS02001745           JUNCTION    221.95   433.24     0  02:04        2.35        2.36       0.406
  YS02001748           JUNCTION      0.04   605.23     0  02:05     0.00127        2.36       0.958
  YS02001751           JUNCTION      0.01   384.93     0  02:02     0.00031        2.32       1.015
  YS02001754           JUNCTION      0.26   249.46     0  02:07     0.00733         2.3       1.076
  YS02001762           JUNCTION      0.00   277.91     0  02:11           0        1.85       1.148
  YS02001765           JUNCTION      0.00   276.51     0  02:11           0        1.85       1.321
  YS02001767           JUNCTION      0.54   275.31     0  02:11      0.0151        1.87       1.933
  YS02001770           JUNCTION    273.83   301.54     0  03:06        2.63        2.68       1.177
  YS02001774           JUNCTION      0.00   302.11     0  03:06           0        0.84       3.071
  YS02001779           JUNCTION      0.01   302.22     0  03:06    0.000141       0.809       1.928
  YS02001882           JUNCTION      0.00    23.37     0  02:01           0      0.0161      14.669
  YS02001884           JUNCTION      0.00    46.87     0  02:01           0      0.0516      12.446
  YS02001759           JUNCTION    262.15   538.83     0  02:11        2.42         4.2       0.544
  YS02001887           JUNCTION    333.12   340.36     0  02:12        2.79        2.82       0.287
  YS02001890           JUNCTION      0.00   340.63     0  02:12           0        2.77       0.317
  YS02001898           JUNCTION      0.00   347.43     0  02:11           0        2.76       0.094
  YS02001901           JUNCTION      0.00   343.93     0  02:11           0        2.76       0.238
  YS02001904           JUNCTION      0.00   343.37     0  02:11           0        2.76       0.216
  YS02001907           JUNCTION      0.00   619.99     0  02:33           0        6.14       0.387
  YS02001910           JUNCTION      0.00   319.48     0  03:05           0        3.39       0.333
  YS02001915           JUNCTION    195.26   315.28     0  03:03        1.97         3.4       0.163
  YS02001918           JUNCTION      0.00   134.61     0  02:52           0        1.43       0.124
  YS02001619           JUNCTION    191.04   191.04     0  02:29        1.95        1.95       0.621
  YS02001629           JUNCTION      0.00   196.87     0  01:47           0        1.78       1.619
  YS02001641           JUNCTION      0.00   399.16     0  02:02           0           4       0.523
  YS02001644           JUNCTION    211.51  1000.50     0  03:05        2.26        8.09       0.321
  YS02001652           JUNCTION      0.00   309.49     0  02:02           0        2.03       1.107
  YS02001655           JUNCTION      0.15   448.95     0  01:57     0.00434        2.06       1.237
  YS02001920           JUNCTION      2.87   130.87     0  02:52      0.0809        1.44       0.195
  YS02001923           JUNCTION      0.04   115.32     0  02:54     0.00106        1.36       0.052
  YS02001926           JUNCTION      0.05   121.09     0  02:52     0.00147        1.36       0.223
  YS02001929           JUNCTION    105.11   105.11     0  02:59        1.36        1.36       0.036
  YS02001658           JUNCTION      0.00   643.16     0  02:02           0        2.09       1.056
  YS02001661           JUNCTION      0.00   641.44     0  02:23           0        2.85      -0.151
  YS02001664           JUNCTION    239.63   369.56     0  02:22        2.08        2.84       0.202
  YS02001622           JUNCTION      0.00   191.32     0  02:28           0        1.94       1.657
  YS02001633           JUNCTION    215.43   399.11     0  02:02        2.33        4.06       0.789
  YS02001649           JUNCTION      0.00   845.99     0  02:18           0        5.21       0.710
  YS02001757           JUNCTION      0.00  1572.79     0  02:19           0        9.68       0.961
  YS02001895           JUNCTION      0.00   340.91     0  02:11           0        2.77       0.182
  YS02001625           JUNCTION      0.00   198.06     0  01:47           0        1.91       2.083
  YS02163301           JUNCTION      0.00   213.75     0  02:02           0        1.77       1.360
  YS02163601           JUNCTION      0.11   399.14     0  02:02      0.0031        4.02       0.750
  YS02164001           JUNCTION      0.00   399.14     0  02:02           0           4       0.496
  YS02001647           JUNCTION      0.00   603.78     0  02:19           0        4.16       0.670
  YSB1154              JUNCTION     23.84    23.84     0  01:41       0.112       0.113       1.299
  YSB6556              JUNCTION      0.00    24.02     0  01:41           0       0.113       1.116
  YSB1174              JUNCTION     19.99    19.99     0  01:36       0.081      0.0815       1.597
  YSB1171              JUNCTION      0.00    43.60     0  01:40           0         0.2       3.265
  YS02006553           JUNCTION      0.00   620.32     0  02:33           0        6.13       0.241
  YS02006561           JUNCTION      0.00   899.36     0  02:30           0        8.64       0.008
  YS02006556           JUNCTION      0.00   619.91     0  02:32           0        6.14       0.180
  YS02006558           JUNCTION    286.64   899.67     0  02:29        2.56        8.67       0.059
  YS02001783           JUNCTION      0.00   899.42     0  02:30           0        8.64       0.024
  YS02001784           JUNCTION      1.06   900.49     0  02:30      0.0299        8.66       0.041
  YS02001786           JUNCTION      0.06   900.53     0  02:30     0.00159        8.66       0.037
  YS02001788           JUNCTION      0.07   900.63     0  02:29       0.002        8.66       0.021
  YS02001790           JUNCTION      0.15   900.79     0  02:30     0.00437        8.66       0.026
  YS02001791           JUNCTION      0.00   900.83     0  02:30           0        8.66       0.012
  YS02001793           JUNCTION      0.00   900.88     0  02:30           0        8.66       0.003
  WS02004139           JUNCTION      0.32   380.37     0  01:00     0.00905        6.96       0.374
  WSC                  OUTFALL       0.00   987.49     0  02:15           0        16.6       0.000
  3                    OUTFALL       0.00   514.59     0  02:50           0        3.81       0.000
  4                    OUTFALL       0.00   138.73     0  02:50           0       0.377       0.000
  5                    OUTFALL       0.00     0.00     0  00:00           0           0       0.000 ltr
  JK-storage           STORAGE       0.00   900.86     0  02:30           0        8.81      -6.643
  CC-storage           STORAGE       0.00  1572.40     0  02:19           0        8.67       0.697
  XR-storage           STORAGE     560.10   560.10     0  02:30        9.63        10.2      -1.206
  
  
  **********************
  Node Surcharge Summary
  **********************
  
  Surcharging occurs when water rises above the top of the highest conduit.
  ---------------------------------------------------------------------
                                               Max. Height   Min. Depth
                                   Hours       Above Crown    Below Rim
  Node                 Type      Surcharged         Meters       Meters
  ---------------------------------------------------------------------
  WS02004404           JUNCTION        0.45          0.031        2.749
  WS02004406           JUNCTION        0.09          0.008        2.442
  WS02004405           JUNCTION        0.23          0.018        2.782
  WS02006109           JUNCTION        2.76          0.248        1.572
  WS02006110           JUNCTION        0.94          0.074        1.776
  WS02006112           JUNCTION        1.34          0.199        1.481
  WS02006230           JUNCTION        0.24          0.037        1.533
  WS02006231           JUNCTION        0.44          0.059        1.471
  WS02006232           JUNCTION        2.88          0.183        1.297
  WS02006234           JUNCTION        0.89          0.075        1.165
  WS02006235           JUNCTION        2.01          0.106        1.184
  WS02006238           JUNCTION        2.36          0.121        1.309
  WS02006240           JUNCTION        0.40          0.035        1.355
  WS02006242           JUNCTION        1.60          0.080        0.740
  WS02006239           JUNCTION        0.95          0.062        1.228
  WS02006252           JUNCTION        2.09          0.193        0.907
  WS02006228           JUNCTION        2.66          0.300        1.900
  YS02001748           JUNCTION        5.60          1.190        0.000
  YS02001751           JUNCTION        5.79          1.200        0.000
  YS02001754           JUNCTION        5.96          1.075        0.075
  YS02001762           JUNCTION        6.14          1.030        0.120
  YS02001765           JUNCTION        6.13          0.975        0.125
  YS02001767           JUNCTION        6.12          0.932        0.098
  YS02001770           JUNCTION        6.11          0.920        0.000
  YS02001774           JUNCTION        6.14          1.017        0.033
  YS02001779           JUNCTION        5.95          0.680        0.000
  YS02001882           JUNCTION        0.92          0.374        0.456
  YS02001884           JUNCTION        0.97          0.415        0.455
  YS02001759           JUNCTION        6.15          1.068        0.142
  YS02001887           JUNCTION        1.08          0.501        0.449
  YS02001890           JUNCTION        1.13          0.528        0.232
  YS02001898           JUNCTION        0.83          0.306        0.434
  YS02001901           JUNCTION        1.04          0.463        0.407
  YS02001904           JUNCTION        1.01          0.436        0.414
  YS02001907           JUNCTION        1.69          0.765        0.185
  YS02001910           JUNCTION        1.19          0.561        0.539
  YS02001915           JUNCTION        0.89          0.352        0.648
  YS02001619           JUNCTION        5.81          0.610        0.000
  YS02001629           JUNCTION        5.83          0.470        0.000
  YS02001641           JUNCTION        6.13          0.964        0.136
  YS02001644           JUNCTION        6.13          0.920        0.000
  YS02001652           JUNCTION        6.03          1.130        0.000
  YS02001655           JUNCTION        5.83          1.200        0.000
  YS02001920           JUNCTION        0.25          0.052        1.088
  YS02001658           JUNCTION        5.66          1.300        0.000
  YS02001661           JUNCTION        0.22          1.309        0.081
  YS02001622           JUNCTION        5.85          0.620        0.000
  YS02001633           JUNCTION        6.12          0.968        0.092
  YS02001649           JUNCTION        6.14          1.050        0.000
  YS02001757           JUNCTION        6.19          1.178        0.032
  YS02001895           JUNCTION        0.86          0.335        0.415
  YS02001625           JUNCTION        6.09          0.780        0.000
  YS02163301           JUNCTION        6.11          0.921        0.109
  YS02163601           JUNCTION        6.15          1.041        0.039
  YS02164001           JUNCTION        6.12          0.971        0.129
  YS02001647           JUNCTION        6.07          0.834        0.066
  YS02006553           JUNCTION        1.76          0.760        0.430
  YS02006561           JUNCTION        0.59          0.128        1.022
  YS02006556           JUNCTION        1.42          0.673        0.677
  YS02006558           JUNCTION        1.37          0.649        0.751
  YS02001783           JUNCTION        1.44          0.755        0.845
  YS02001784           JUNCTION        1.50          0.921        0.569
  YS02001786           JUNCTION        1.45          1.326        0.104
  YS02001788           JUNCTION        1.44          0.963        0.517
  YS02001790           JUNCTION        2.60          1.157        0.000
  YS02001791           JUNCTION        2.64          0.813        1.107
  YS02001793           JUNCTION        2.70          0.964        1.636
  
  
  *********************
  Node Flooding Summary
  *********************
  
  Flooding refers to all water that overflows a node, whether it ponds or not.
  --------------------------------------------------------------------------
                                                             Total   Maximum
                                 Maximum   Time of Max       Flood    Ponded
                        Hours       Rate    Occurrence      Volume     Depth
  Node                 Flooded       LPS   days hr:min    10^6 ltr    Meters
  --------------------------------------------------------------------------
  YS02001748              0.01    163.02      0  02:06       0.000     0.000
  YS02001751              0.01    172.17      0  02:02       0.000     0.000
  YS02001770              0.01      8.42      0  02:02       0.000     0.000
  YS02001779              2.41    302.17      0  03:06       0.788     0.000
  YS02001619              0.01     44.87      0  02:03       0.000     0.000
  YS02001629              0.01     36.30      0  02:03       0.000     0.000
  YS02001644              4.03   1000.23      0  03:05       5.740     0.000
  YS02001652              0.01     20.78      0  02:02       0.000     0.000
  YS02001655              0.01    128.16      0  01:57       0.000     0.000
  YS02001658              0.01    170.67      0  02:02       0.000     0.000
  YS02001622              0.01     50.63      0  02:03       0.000     0.000
  YS02001649              0.09     44.58      0  02:28       0.005     0.000
  YS02001625              0.90     48.30      0  02:31       0.101     0.000
  YS02001790              0.01    114.78      0  01:58       0.000     0.000
  JK-storage              2.51    600.82      0  02:30       3.493     0.000
  XR-storage              4.07    370.05      0  02:30       2.474     0.000
  
  
  **********************
  Storage Volume Summary
  **********************
  
  --------------------------------------------------------------------------------------------------
                         Average     Avg  Evap Exfil       Maximum     Max    Time of Max    Maximum
                          Volume    Pcnt  Pcnt  Pcnt        Volume    Pcnt     Occurrence    Outflow
  Storage Unit           1000 m3    Full  Loss  Loss       1000 m3    Full    days hr:min        LPS
  --------------------------------------------------------------------------------------------------
  JK-storage               0.139      48     0     0         0.291     100       0  01:59     599.99
  CC-storage               3.145      20     0     0         3.859      25       0  03:03     400.00
  XR-storage               0.823      89     0     0         0.926     100       0  02:28     380.00
  
  
  ***********************
  Outfall Loading Summary
  ***********************
  
  -----------------------------------------------------------
                         Flow       Avg       Max       Total
                         Freq      Flow      Flow      Volume
  Outfall Node           Pcnt       LPS       LPS    10^6 ltr
  -----------------------------------------------------------
  WSC                  100.00    640.13    987.49      16.627
  3                     88.01    187.61    514.59       3.809
  4                     40.00     39.48    138.73       0.377
  5                      0.00      0.00      0.00       0.000
  -----------------------------------------------------------
  System                57.00    867.22   1471.14      20.813
  
  
  ********************
  Link Flow Summary
  ********************
  
  -----------------------------------------------------------------------------
                                 Maximum  Time of Max   Maximum    Max/    Max/
                                  |Flow|   Occurrence   |Veloc|    Full    Full
  Link                 Type          LPS  days hr:min     m/sec    Flow   Depth
  -----------------------------------------------------------------------------
  WS02003066WSF200     CONDUIT    627.22     0  01:51      2.89    0.11    0.25
  WS02006287WS02006284 CONDUIT    366.21     0  01:42      1.96    0.17    0.29
  WS02006284WS02006280 CONDUIT    366.28     0  01:42      2.20    0.15    0.26
  WS02006280WS02006229 CONDUIT    366.28     0  01:42      3.55    0.08    0.19
  WS02006229WS02006228 CONDUIT    623.18     0  01:45      1.24    2.06    1.00
  WS02006256WS02006235 CONDUIT    158.31     0  01:30      2.30    1.68    1.00
  WS02006253WS02006251 CONDUIT     83.20     0  01:47      0.58    0.25    0.94
  WS02006252WS02006251 CONDUIT    400.39     0  06:52      3.19    1.47    1.00
  WS02006251WS02006249 CONDUIT    421.67     0  02:50      1.18    1.22    0.90
  WS02006249WS02006248 CONDUIT    353.68     0  04:30      1.15    1.94    0.86
  WS02006248WS02006247 CONDUIT    347.78     0  04:31      1.11    0.76    0.91
  WS02006247WS02006245 CONDUIT    341.28     0  04:31      1.07    2.71    0.95
  WS02006245WS02006243 CONDUIT    335.68     0  06:11      1.07    0.99    0.97
  WS02006243WS02006242 CONDUIT    335.49     0  06:11      0.94    0.72    1.00
  WS02006242WS02006240 CONDUIT    332.23     0  06:10      0.91    1.32    1.00
  WS02006240WS02006239 CONDUIT    330.43     0  06:10      0.95    1.04    1.00
  WS02006239WS02006238 CONDUIT    328.46     0  06:10      0.90    1.05    1.00
  WS02006238WS02006235 CONDUIT    326.67     0  06:10      0.89    0.73    1.00
  WS02006235WS02006234 CONDUIT    392.40     0  04:40      1.04    4.14    1.00
  WS02006234WS02006232 CONDUIT    392.30     0  04:40      1.02    0.79    1.00
  WS02006232WS02006231 CONDUIT    392.30     0  04:40      1.06    0.82    1.00
  WS02006231WS02006230 CONDUIT    392.14     0  04:40      1.34    5.95    1.00
  WS02006230WS02006229 CONDUIT    402.31     0  04:40      1.05    8.95    1.00
  WS02006228WS02006109 CONDUIT    623.10     0  01:45      1.24    2.72    1.00
  WS02006116WS02004401 CONDUIT    632.88     0  01:46      0.84    0.87    0.93
  WS02006115WS02006116 CONDUIT    635.28     0  01:46      0.94    0.82    0.85
  WS02006113WS02006111 CONDUIT    654.25     0  01:44      2.60    0.78    0.50
  WS02006112WS02006115 CONDUIT    649.24     0  01:45      0.87    0.38    0.92
  WS02006111WS02006112 CONDUIT    630.25     0  01:45      1.71    0.30    0.69
  WS02006110WS02006113 CONDUIT    624.66     0  01:45      1.44    0.57    0.81
  WS02006109WS02006110 CONDUIT    624.35     0  01:45      1.24    1.20    1.00
  WS02004411WS02004412 CONDUIT    627.39     0  01:50      1.00    0.89    0.74
  WS02004401WS02004402 CONDUIT    633.17     0  01:48      0.83    0.76    0.94
  WS02004413WS02003067 CONDUIT    627.03     0  01:51      1.21    0.27    0.63
  WS02004412WS02004413 CONDUIT    627.12     0  01:50      0.91    0.42    0.82
  WS02004410WS02004411 CONDUIT    627.67     0  01:50      1.01    0.86    0.74
  WS02004409WS02004410 CONDUIT    628.81     0  01:49      1.03    0.81    0.73
  WS02004407WS02004409 CONDUIT    630.83     0  01:48      1.55    0.22    0.52
  WS02004406WS02004407 CONDUIT    631.26     0  01:48      1.15    0.28    0.66
  WS02004405WS02004406 CONDUIT    630.96     0  01:48      0.80    1.24    1.00
  WS02004404WS02004405 CONDUIT    631.55     0  01:47      0.96    6.19    1.00
  WS02004403WS02004404 CONDUIT    630.97     0  01:48      0.85    0.46    0.98
  WS02004402WS02004403 CONDUIT    631.82     0  01:48      0.87    0.91    0.96
  WS02004139WS02001211 CONDUIT    380.55     0  05:29      0.81    0.48    0.59
  WS02004138WS02004139 CONDUIT    380.05     0  01:00      3.34    0.08    0.43
  WS02003067WS02003066 CONDUIT    627.14     0  01:51      1.32    0.20    0.44
  WS02001213WS02003059 CONDUIT    389.12     0  05:30      0.78    0.64    0.78
  WS02001212WS02001213 CONDUIT    388.45     0  05:30      1.32    0.60    0.47
  WS02001211WS02001212 CONDUIT    388.10     0  05:29      0.78    0.30    0.65
  WS02003072WS02003073 CONDUIT    985.46     0  02:14      1.76    2.13    0.50
  WS02003069WS02003072 CONDUIT    985.19     0  02:13      1.65    0.47    0.52
  WS02003060WS02003069 CONDUIT    985.08     0  02:13      1.89    0.39    0.47
  WS02003059WS02003060 CONDUIT    390.01     0  05:30      0.95    0.25    0.67
  HS02004901HS02004770 CONDUIT     17.82     0  01:38      0.06    0.07    0.40
  HS02004876HS02004881 CONDUIT     67.33     0  01:43      0.89    0.72    0.11
  HS02004870HS02004876 CONDUIT     54.05     0  01:43      0.61    0.04    0.13
  HS02004842HS02004848 CONDUIT     10.09     0  01:58      0.05    0.01    0.30
  HS02004837HS02004842 CONDUIT     10.33     0  02:00      0.42    0.01    0.31
  HS02004830HS02004837 CONDUIT     38.21     0  01:51      0.54    0.04    0.10
  HS02004824HS02004830 CONDUIT     38.37     0  01:52      0.57    0.05    0.10
  HS02004817HS02004824 CONDUIT     71.73     0  01:54      0.22    0.03    0.46
  HS02004770HS02004777 CONDUIT     92.16     0  01:38      0.32    0.17    0.41
  HS02004799HS02004480 CONDUIT    230.85     0  01:40      0.78    0.29    0.42
  HS02004792HS02004799 CONDUIT    210.29     0  01:40      0.89    0.13    0.34
  HS02004788HS02004792 CONDUIT    122.00     0  01:40      1.02    0.08    0.17
  HS02004785HS02004788 CONDUIT     92.09     0  01:40      0.67    0.69    0.20
  HS02004777HS02004785 CONDUIT     91.99     0  01:39      0.39    0.11    0.34
  HS02004480HS02004478 CONDUIT    273.64     0  01:41      1.21    1.15    0.32
  HS02004479HS02004480 CONDUIT     43.48     0  01:42      0.30    0.04    0.41
  HS02004862HS02004870 CONDUIT     40.54     0  01:45      0.62    0.04    0.09
  HS02004848HS02004852 CONDUIT     17.93     0  01:51      0.42    0.02    0.06
  HS02004856HS02004862 CONDUIT     27.96     0  01:44      0.46    0.03    0.09
  HS02004852HS02004856 CONDUIT     17.92     0  01:52      0.22    0.02    0.12
  HS02004802HS02004478 CONDUIT     96.20     0  01:53      0.42    0.08    0.34
  HS02004478WS02006287 CONDUIT    366.22     0  01:42      1.67    0.10    0.24
  HS02004817HS02004807 CONDUIT     72.77     0  01:55      0.17    0.04    0.61
  HS02004807HS02004802 CONDUIT     95.92     0  01:53      0.36    0.18    0.39
  YS02001759YS02001757 CONDUIT    539.60     0  02:11      0.69    0.38    1.00
  YS02001762YS02001759 CONDUIT    279.19     0  02:11      0.36    0.32    1.00
  YS02001765YS02001762 CONDUIT    277.91     0  02:11      0.35    0.26    1.00
  YS02001770YS02001767 CONDUIT    274.77     0  02:11      0.42    1.09    1.00
  YS02001774YS02001770 CONDUIT    302.11     0  03:06      0.38    0.19    1.00
  YS02001779YS02001774 CONDUIT    302.21     0  03:06      0.38    0.15    1.00
  YS02001649YS02001757 CONDUIT    846.07     0  02:18      1.08    0.51    1.00
  YS02001767YS02001765 CONDUIT    276.51     0  02:11      0.38    0.35    1.00
  YS02006561YS02001783 CONDUIT    899.42     0  02:30      2.12    0.47    1.00
  YS02001783YS02001784 CONDUIT    899.43     0  02:30      1.79    1.24    1.00
  YS02001784YS02001785 CONDUIT    900.48     0  02:30      1.79    2.10    1.00
  YS02001788YS02001790 CONDUIT    900.63     0  02:30      2.32    0.66    1.00
  YS02001790YS02001791 CONDUIT    900.83     0  02:30      2.83    0.98    1.00
  YS02001791YS02001793 CONDUIT    900.88     0  02:30      5.70    0.39    1.00
  YS02001910YS02001907 CONDUIT    319.43     0  03:05      0.49    0.18    1.00
  YS02001786YS02001788 CONDUIT    900.56     0  02:29      2.23    1.74    1.00
  YS02001915YS02001910 CONDUIT    319.48     0  03:05      0.58    0.16    1.00
  YS02001918YS02001915 CONDUIT    143.99     0  03:07      0.44    0.08    1.00
  YS02001923YS02001920 CONDUIT    128.00     0  02:52      0.68    0.06    0.90
  YS02001926YS02001923 CONDUIT    115.29     0  02:54      0.78    0.16    0.61
  YS02001929YS02001926 CONDUIT    121.04     0  02:52      0.83    0.06    0.49
  YS02001920YS02001918 CONDUIT    134.61     0  02:52      0.67    0.13    1.00
  YS02001629YS02163301 CONDUIT    213.75     0  02:02      0.27    0.26    1.00
  YS02001619YS02001622 CONDUIT    191.32     0  02:28      0.73    0.28    1.00
  YS02001622YS02001625 CONDUIT    198.06     0  01:47      0.36    0.11    1.00
  YS02001625YS02001629 CONDUIT    196.87     0  01:47      0.30    0.09    1.00
  YS02163301YS02001633 CONDUIT    213.93     0  02:02      0.27    0.20    1.00
  YS02163601YS02164001 CONDUIT    399.14     0  02:02      0.51    0.35    1.00
  YS02164001YS02001641 CONDUIT    399.16     0  02:02      0.51    0.55    1.00
  YS02001641YS02001644 CONDUIT    399.43     0  02:02      0.51    1.29    1.00
  YS02001647YS02001649 CONDUIT    604.02     0  02:19      0.77    0.32    1.00
  YS02006553YS02006556 CONDUIT    619.91     0  02:32      0.79    0.53    1.00
  YS02006556YS02006558 CONDUIT    619.89     0  02:33      0.79    0.49    1.00
  YSB6556YSB1171       CONDUIT     24.43     0  01:43      0.09    0.03    0.68
  YS02001907YS02006553 CONDUIT    620.32     0  02:33      0.69    0.73    1.00
  YS02006558YS02006561 CONDUIT    899.36     0  02:30      3.18    1.99    1.00
  YS02001633YS02163601 CONDUIT    399.03     0  02:02      0.51    0.42    1.00
  YS02001644YS02001647 CONDUIT    603.78     0  02:19      0.77    0.35    1.00
  YS02001745YS02001748 CONDUIT    605.19     0  02:05      1.65    0.23    0.94
  YS02001748YS02001751 CONDUIT    384.92     0  02:02      1.23    0.19    1.00
  YS02001751YS02001754 CONDUIT    249.20     0  02:07      1.05    0.12    1.00
  YS02001754YS02001757 CONDUIT    245.36     0  02:08      0.33    0.10    1.00
  YS02001882YS02001884 CONDUIT     23.37     0  02:01      0.15    0.03    1.00
  YS02001884YS02001887 CONDUIT     46.87     0  02:01      0.11    0.06    1.00
  YS02001890YS02001895 CONDUIT    340.91     0  02:11      0.47    0.16    1.00
  YS02001895YS02001898 CONDUIT    347.43     0  02:11      0.59    0.60    1.00
  YS02001898YS02001901 CONDUIT    343.93     0  02:11      0.51    0.22    1.00
  YS02001901YS02001904 CONDUIT    343.37     0  02:11      0.47    0.53    1.00
  YS02001904YS02001907 CONDUIT    341.28     0  02:11      0.43    0.12    1.00
  YS02001887YS02001890 CONDUIT    340.63     0  02:12      0.43    0.58    1.00
  YS02001652YS02001649 CONDUIT    309.74     0  02:01      0.61    0.15    1.00
  YS02001655YS02001652 CONDUIT    309.49     0  02:02      1.11    0.15    1.00
  YS02001658YS02001655 CONDUIT    448.79     0  01:57      1.42    0.19    1.00
  YS02001661YS02001658 CONDUIT    643.16     0  02:02      1.73    0.25    1.00
  YS02001664YS02001661 CONDUIT    641.44     0  02:23      1.64    0.20    0.72
  YSB1154YSB6556       CONDUIT     24.02     0  01:41      0.15    0.04    0.57
  YSB1174YSB1171       CONDUIT     20.02     0  01:36      0.07    0.03    0.68
  YSB1171HS02004479    CONDUIT     43.17     0  01:41      0.54    0.03    0.54
  HS02004881HS02006253 CONDUIT     74.61     0  01:43      2.12    0.01    0.25
  YS02001793JiankangQianchi CONDUIT    900.86     0  02:30     13.57    0.07    1.00
  YS02001757CaochengTiaoxuchi CONDUIT   1572.40     0  02:19      2.47    0.69    1.00
  WSF200WS02003060     CONDUIT    628.04     0  01:51      1.96    0.14    0.36
  1                    CONDUIT    987.49     0  02:15      3.32    0.34    0.40
  2                    CONDUIT    138.73     0  02:50      5.30    0.33    0.40
  3                    CONDUIT    514.59     0  02:50      9.84    0.82    0.69
  4                    CONDUIT      0.00     0  00:00      0.00    0.00    0.00
  CC-Pump-1            PUMP       200.00     0  02:30              1.00
  CC-Pump-2            PUMP       200.00     0  02:00              1.00
  JK-Pump-1            PUMP       300.00     0  02:00              1.00
  JK-Pump-2            PUMP       300.00     0  01:36              1.00
  XR-Pump-1            PUMP        95.00     0  00:00              1.00
  XR-Pump-2            PUMP        95.00     0  00:00              1.00
  XR-Pump-3            PUMP        95.00     0  00:00              1.00
  XR-Pump-4            PUMP        95.00     0  00:20              1.00
  
  
  ***************************
  Flow Classification Summary
  ***************************
  
  -------------------------------------------------------------------------------------
                      Adjusted    ---------- Fraction of Time in Flow Class ---------- 
                       /Actual         Up    Down  Sub   Sup   Up    Down  Norm  Inlet 
  Conduit               Length    Dry  Dry   Dry   Crit  Crit  Crit  Crit  Ltd   Ctrl  
  -------------------------------------------------------------------------------------
  WS02003066WSF200        1.00   0.01  0.03  0.00  0.00  0.96  0.00  0.00  0.66  0.00
  WS02006287WS02006284    1.00   0.03  0.01  0.00  0.60  0.36  0.00  0.00  0.72  0.00
  WS02006284WS02006280    1.00   0.04  0.00  0.00  0.00  0.00  0.00  0.96  0.00  0.00
  WS02006280WS02006229    1.00   0.04  0.00  0.00  0.00  0.00  0.00  0.96  0.00  0.00
  WS02006229WS02006228    1.00   0.00  0.00  0.00  1.00  0.00  0.00  0.00  0.00  0.00
  WS02006256WS02006235    1.00   0.00  0.00  0.00  1.00  0.00  0.00  0.00  0.00  0.00
  WS02006253WS02006251    1.00   0.02  0.01  0.00  0.96  0.00  0.00  0.00  0.00  0.00
  WS02006252WS02006251    1.00   0.05  0.00  0.00  0.00  0.00  0.95  0.00  0.00  0.00
  WS02006251WS02006249    1.00   0.00  0.00  0.00  1.00  0.00  0.00  0.00  0.16  0.00
  WS02006249WS02006248    1.00   0.00  0.00  0.00  0.95  0.00  0.05  0.00  0.00  0.00
  WS02006248WS02006247    1.00   0.00  0.00  0.00  0.98  0.00  0.00  0.02  0.06  0.00
  WS02006247WS02006245    1.00   0.00  0.00  0.00  0.98  0.00  0.00  0.01  0.00  0.00
  WS02006245WS02006243    1.00   0.01  0.00  0.00  0.97  0.00  0.00  0.02  0.01  0.00
  WS02006243WS02006242    1.00   0.01  0.00  0.00  0.99  0.00  0.00  0.00  0.12  0.00
  WS02006242WS02006240    1.00   0.00  0.00  0.00  0.99  0.00  0.00  0.00  0.00  0.00
  WS02006240WS02006239    1.00   0.00  0.00  0.00  0.98  0.00  0.00  0.02  0.01  0.00
  WS02006239WS02006238    1.00   0.00  0.00  0.00  1.00  0.00  0.00  0.00  0.00  0.00
  WS02006238WS02006235    1.00   0.00  0.00  0.00  1.00  0.00  0.00  0.00  0.00  0.00
  WS02006235WS02006234    1.00   0.00  0.00  0.00  0.98  0.00  0.02  0.00  0.00  0.00
  WS02006234WS02006232    1.00   0.00  0.00  0.00  1.00  0.00  0.00  0.00  0.00  0.00
  WS02006232WS02006231    1.00   0.00  0.00  0.00  0.99  0.00  0.00  0.00  0.00  0.00
  WS02006231WS02006230    1.00   0.00  0.00  0.00  0.73  0.00  0.27  0.00  0.00  0.00
  WS02006230WS02006229    1.00   0.00  0.00  0.00  0.99  0.00  0.00  0.01  0.00  0.00
  WS02006228WS02006109    1.00   0.00  0.00  0.00  1.00  0.00  0.00  0.00  0.00  0.00
  WS02006116WS02004401    1.00   0.02  0.00  0.00  0.98  0.00  0.00  0.00  0.00  0.00
  WS02006115WS02006116    1.00   0.02  0.00  0.00  0.98  0.00  0.00  0.00  0.00  0.00
  WS02006113WS02006111    1.00   0.01  0.00  0.00  0.00  0.99  0.00  0.00  0.11  0.00
  WS02006112WS02006115    1.00   0.01  0.01  0.00  0.98  0.00  0.00  0.00  0.00  0.00
  WS02006111WS02006112    1.00   0.01  0.00  0.00  0.98  0.00  0.00  0.00  0.93  0.00
  WS02006110WS02006113    1.00   0.00  0.01  0.00  0.99  0.00  0.00  0.00  0.00  0.00
  WS02006109WS02006110    1.00   0.00  0.00  0.00  1.00  0.00  0.00  0.00  0.00  0.00
  WS02004411WS02004412    1.00   0.03  0.00  0.00  0.97  0.00  0.00  0.00  0.00  0.00
  WS02004401WS02004402    1.00   0.02  0.00  0.00  0.98  0.00  0.00  0.00  0.00  0.00
  WS02004413WS02003067    1.00   0.03  0.01  0.00  0.00  0.00  0.97  0.00  0.00  0.00
  WS02004412WS02004413    1.00   0.03  0.00  0.00  0.97  0.00  0.00  0.00  0.01  0.00
  WS02004410WS02004411    1.00   0.03  0.00  0.00  0.97  0.00  0.00  0.00  0.00  0.00
  WS02004409WS02004410    1.00   0.03  0.00  0.00  0.97  0.00  0.00  0.00  0.02  0.00
  WS02004407WS02004409    1.00   0.03  0.00  0.00  0.97  0.00  0.00  0.00  0.92  0.00
  WS02004406WS02004407    1.00   0.00  0.03  0.00  0.97  0.00  0.00  0.00  0.00  0.00
  WS02004405WS02004406    1.00   0.00  0.00  0.00  1.00  0.00  0.00  0.00  0.03  0.00
  WS02004404WS02004405    1.00   0.00  0.00  0.00  1.00  0.00  0.00  0.00  0.00  0.00
  WS02004403WS02004404    1.00   0.00  0.02  0.00  0.98  0.00  0.00  0.00  0.00  0.00
  WS02004402WS02004403    1.00   0.02  0.00  0.00  0.98  0.00  0.00  0.00  0.00  0.00
  WS02004139WS02001211    1.00   0.00  0.00  0.00  1.00  0.00  0.00  0.00  0.00  0.00
  WS02004138WS02004139    1.00   0.00  0.00  0.00  1.00  0.00  0.00  0.00  1.00  0.00
  WS02003067WS02003066    1.00   0.03  0.00  0.00  0.96  0.00  0.00  0.00  0.00  0.00
  WS02001213WS02003059    1.00   0.00  0.00  0.00  1.00  0.00  0.00  0.00  0.00  0.00
  WS02001212WS02001213    1.00   0.00  0.00  0.00  0.93  0.00  0.07  0.00  0.00  0.00
  WS02001211WS02001212    1.00   0.00  0.00  0.00  1.00  0.00  0.00  0.00  0.00  0.00
  WS02003072WS02003073    1.00   0.00  0.00  0.00  0.00  0.00  0.00  1.00  0.00  0.00
  WS02003069WS02003072    1.00   0.00  0.00  0.00  1.00  0.00  0.00  0.00  0.08  0.00
  WS02003060WS02003069    1.00   0.00  0.00  0.00  0.99  0.01  0.00  0.00  0.04  0.00
  WS02003059WS02003060    1.00   0.00  0.00  0.00  1.00  0.00  0.00  0.00  0.01  0.00
  HS02004901HS02004770    1.00   0.04  0.00  0.00  0.96  0.00  0.00  0.00  0.00  0.00
  HS02004876HS02004881    1.00   0.00  0.00  0.00  0.92  0.08  0.00  0.00  0.00  0.00
  HS02004870HS02004876    1.00   0.00  0.00  0.00  1.00  0.00  0.00  0.00  0.95  0.00
  HS02004842HS02004848    1.00   0.00  0.04  0.00  0.96  0.00  0.00  0.00  0.59  0.00
  HS02004837HS02004842    1.00   0.00  0.00  0.00  1.00  0.00  0.00  0.00  0.11  0.00
  HS02004830HS02004837    1.00   0.00  0.00  0.00  1.00  0.00  0.00  0.00  0.99  0.00
  HS02004824HS02004830    1.00   0.00  0.00  0.00  1.00  0.00  0.00  0.00  0.00  0.00
  HS02004817HS02004824    1.00   0.00  0.00  0.00  1.00  0.00  0.00  0.00  1.00  0.00
  HS02004770HS02004777    1.00   0.00  0.04  0.00  0.96  0.00  0.00  0.00  0.02  0.00
  HS02004799HS02004480    1.00   0.00  0.01  0.00  0.96  0.00  0.03  0.00  0.00  0.00
  HS02004792HS02004799    1.00   0.00  0.00  0.00  1.00  0.00  0.00  0.00  0.98  0.00
  HS02004788HS02004792    1.00   0.00  0.00  0.00  1.00  0.00  0.00  0.00  0.98  0.00
  HS02004785HS02004788    1.00   0.00  0.00  0.00  1.00  0.00  0.00  0.00  0.00  0.00
  HS02004777HS02004785    1.00   0.00  0.00  0.00  1.00  0.00  0.00  0.00  0.12  0.00
  HS02004480HS02004478    1.00   0.04  0.00  0.00  0.65  0.00  0.00  0.32  0.00  0.00
  HS02004479HS02004480    1.00   0.01  0.00  0.00  0.99  0.00  0.00  0.00  0.11  0.00
  HS02004862HS02004870    1.00   0.00  0.00  0.00  1.00  0.00  0.00  0.00  0.03  0.00
  HS02004848HS02004852    1.00   0.04  0.00  0.00  0.96  0.00  0.00  0.00  0.78  0.00
  HS02004856HS02004862    1.00   0.00  0.04  0.00  0.96  0.00  0.00  0.00  0.83  0.00
  HS02004852HS02004856    1.00   0.04  0.00  0.00  0.96  0.00  0.00  0.00  0.86  0.00
  HS02004802HS02004478    1.00   0.04  0.00  0.00  0.96  0.00  0.00  0.00  0.02  0.00
  HS02004478WS02006287    1.00   0.04  0.00  0.00  0.75  0.21  0.00  0.00  0.69  0.00
  HS02004817HS02004807    1.00   0.00  0.04  0.00  0.96  0.00  0.00  0.00  0.01  0.00
  HS02004807HS02004802    1.00   0.04  0.00  0.00  0.96  0.00  0.00  0.00  0.00  0.00
  YS02001759YS02001757    1.00   0.00  0.00  0.00  1.00  0.00  0.00  0.00  0.16  0.00
  YS02001762YS02001759    1.00   0.00  0.00  0.00  1.00  0.00  0.00  0.00  0.03  0.00
  YS02001765YS02001762    1.00   0.00  0.00  0.00  1.00  0.00  0.00  0.00  0.13  0.00
  YS02001770YS02001767    1.00   0.00  0.00  0.00  1.00  0.00  0.00  0.00  0.00  0.00
  YS02001774YS02001770    1.00   0.00  0.04  0.00  0.96  0.00  0.00  0.00  0.03  0.00
  YS02001779YS02001774    1.00   0.00  0.00  0.00  1.00  0.00  0.00  0.00  0.17  0.00
  YS02001649YS02001757    1.00   0.00  0.00  0.00  1.00  0.00  0.00  0.00  0.16  0.00
  YS02001767YS02001765    1.00   0.00  0.00  0.00  1.00  0.00  0.00  0.00  0.00  0.00
  YS02006561YS02001783    1.00   0.04  0.00  0.00  0.42  0.54  0.00  0.00  0.58  0.00
  YS02001783YS02001784    1.00   0.00  0.04  0.00  0.96  0.00  0.00  0.00  0.00  0.00
  YS02001784YS02001785    1.00   0.00  0.00  0.00  1.00  0.00  0.00  0.00  0.16  0.00
  YS02001788YS02001790    1.00   0.00  0.00  0.00  0.45  0.55  0.00  0.00  0.51  0.00
  YS02001790YS02001791    1.00   0.00  0.00  0.00  0.41  0.59  0.00  0.00  0.45  0.00
  YS02001791YS02001793    1.00   0.00  0.00  0.00  0.42  0.58  0.00  0.00  0.01  0.00
  YS02001910YS02001907    1.00   0.00  0.00  0.00  1.00  0.00  0.00  0.00  0.12  0.00
  YS02001786YS02001788    1.00   0.00  0.00  0.00  0.45  0.55  0.00  0.00  0.00  0.00
  YS02001915YS02001910    1.00   0.00  0.00  0.00  1.00  0.00  0.00  0.00  0.14  0.00
  YS02001918YS02001915    1.00   0.00  0.00  0.00  1.00  0.00  0.00  0.00  0.57  0.00
  YS02001923YS02001920    1.00   0.00  0.00  0.00  1.00  0.00  0.00  0.00  0.83  0.00
  YS02001926YS02001923    1.00   0.00  0.03  0.00  0.16  0.00  0.82  0.00  0.00  0.00
  YS02001929YS02001926    1.00   0.00  0.04  0.00  0.96  0.00  0.00  0.00  0.79  0.00
  YS02001920YS02001918    1.00   0.00  0.00  0.00  1.00  0.00  0.00  0.00  0.00  0.00
  YS02001629YS02163301    1.00   0.04  0.00  0.00  0.96  0.00  0.00  0.00  0.00  0.00
  YS02001619YS02001622    1.00   0.04  0.00  0.00  0.96  0.00  0.00  0.00  0.00  0.00
  YS02001622YS02001625    1.00   0.04  0.00  0.00  0.96  0.00  0.00  0.00  0.04  0.00
  YS02001625YS02001629    1.00   0.04  0.01  0.00  0.95  0.00  0.01  0.00  0.00  0.00
  YS02163301YS02001633    1.00   0.00  0.04  0.00  0.96  0.00  0.00  0.00  0.00  0.00
  YS02163601YS02164001    1.00   0.00  0.03  0.00  0.97  0.00  0.00  0.00  0.00  0.00
  YS02164001YS02001641    1.00   0.00  0.03  0.00  0.97  0.00  0.00  0.00  0.06  0.00
  YS02001641YS02001644    1.00   0.00  0.00  0.00  1.00  0.00  0.00  0.00  0.00  0.00
  YS02001647YS02001649    1.00   0.00  0.04  0.00  0.96  0.00  0.00  0.00  0.01  0.00
  YS02006553YS02006556    1.00   0.00  0.00  0.00  1.00  0.00  0.00  0.00  0.03  0.00
  YS02006556YS02006558    1.00   0.00  0.00  0.00  1.00  0.00  0.00  0.00  0.00  0.00
  YSB6556YSB1171          1.00   0.01  0.02  0.00  0.96  0.00  0.00  0.00  0.00  0.00
  YS02001907YS02006553    1.00   0.00  0.00  0.00  1.00  0.00  0.00  0.00  0.00  0.00
  YS02006558YS02006561    1.00   0.04  0.00  0.00  0.20  0.75  0.00  0.00  0.50  0.00
  YS02001633YS02163601    1.00   0.00  0.00  0.00  1.00  0.00  0.00  0.00  0.15  0.00
  YS02001644YS02001647    1.00   0.00  0.04  0.00  0.96  0.00  0.00  0.00  0.00  0.00
  YS02001745YS02001748    1.00   0.00  0.00  0.00  0.92  0.00  0.00  0.07  0.03  0.00
  YS02001748YS02001751    1.00   0.00  0.00  0.00  0.98  0.02  0.00  0.00  0.14  0.00
  YS02001751YS02001754    1.00   0.00  0.00  0.00  0.95  0.00  0.00  0.05  0.01  0.00
  YS02001754YS02001757    1.00   0.00  0.00  0.00  1.00  0.00  0.00  0.00  0.17  0.00
  YS02001882YS02001884    1.00   0.04  0.00  0.00  0.96  0.00  0.00  0.00  0.00  0.00
  YS02001884YS02001887    1.00   0.02  0.01  0.00  0.97  0.00  0.00  0.00  0.00  0.00
  YS02001890YS02001895    1.00   0.00  0.04  0.00  0.96  0.00  0.00  0.00  0.00  0.00
  YS02001895YS02001898    1.00   0.04  0.00  0.00  0.95  0.00  0.00  0.00  0.00  0.00
  YS02001898YS02001901    1.00   0.04  0.00  0.00  0.96  0.00  0.00  0.00  0.01  0.00
  YS02001901YS02001904    1.00   0.04  0.00  0.00  0.96  0.00  0.00  0.00  0.00  0.00
  YS02001904YS02001907    1.00   0.00  0.04  0.00  0.96  0.00  0.00  0.00  0.00  0.00
  YS02001887YS02001890    1.00   0.00  0.00  0.00  0.99  0.00  0.00  0.00  0.00  0.00
  YS02001652YS02001649    1.00   0.00  0.00  0.00  1.00  0.00  0.00  0.00  0.15  0.00
  YS02001655YS02001652    1.00   0.00  0.00  0.00  0.95  0.00  0.00  0.05  0.01  0.00
  YS02001658YS02001655    1.00   0.00  0.04  0.00  0.94  0.02  0.00  0.00  0.02  0.00
  YS02001661YS02001658    1.00   0.04  0.00  0.00  0.92  0.04  0.00  0.00  0.03  0.00
  YS02001664YS02001661    1.00   0.04  0.00  0.00  0.89  0.07  0.00  0.00  0.15  0.00
  YSB1154YSB6556          1.00   0.04  0.00  0.00  0.96  0.00  0.00  0.00  0.01  0.00
  YSB1174YSB1171          1.00   0.02  0.01  0.00  0.97  0.00  0.00  0.00  0.00  0.00
  YSB1171HS02004479       1.00   0.01  0.00  0.00  0.98  0.00  0.00  0.01  0.10  0.00
  HS02004881HS02006253    1.00   0.02  0.00  0.00  0.85  0.05  0.00  0.08  0.76  0.00
  YS02001793JiankangQianchi    1.00   0.00  0.00  0.00  0.60  0.40  0.00  0.00  0.25  0.00
  YS02001757CaochengTiaoxuchi    1.00   0.00  0.05  0.00  0.92  0.03  0.00  0.00  0.00  0.00
  WSF200WS02003060        1.00   0.00  0.01  0.00  0.65  0.34  0.00  0.00  0.15  0.00
  1                       1.00   0.00  0.00  0.00  0.00  1.00  0.00  0.00  0.37  0.00
  2                       1.00   0.60  0.00  0.00  0.00  0.40  0.00  0.00  0.09  0.00
  3                       1.00   0.12  0.00  0.00  0.00  0.88  0.00  0.00  0.03  0.00
  4                       1.00   1.00  0.00  0.00  0.00  0.00  0.00  0.00  0.00  0.00
  
  
  *************************
  Conduit Surcharge Summary
  *************************
  
  ----------------------------------------------------------------------------
                                                           Hours        Hours 
                         --------- Hours Full --------   Above Full   Capacity
  Conduit                Both Ends  Upstream  Dnstream   Normal Flow   Limited
  ----------------------------------------------------------------------------
  WS02006229WS02006228        2.66      2.91      2.66      5.99         2.66
  WS02006256WS02006235        6.52      6.52      7.62      2.69         0.01
  WS02006252WS02006251        1.07      1.07      2.09      1.83         0.01
  WS02006251WS02006249        0.01      0.01      0.01      1.08         0.01
  WS02006249WS02006248        0.01      0.01      0.01      5.66         0.01
  WS02006247WS02006245        0.01      0.01      0.01      5.97         0.01
  WS02006243WS02006242        0.02      0.02      1.60      0.01         0.01
  WS02006242WS02006240        0.40      0.40      2.28      2.16         0.01
  WS02006240WS02006239        0.61      0.61      0.95      0.04         0.01
  WS02006239WS02006238        2.18      2.18      2.36      0.08         0.04
  WS02006238WS02006235        2.23      2.23      2.77      0.01         0.01
  WS02006235WS02006234        0.89      0.89      2.01      6.54         0.01
  WS02006234WS02006232        1.28      1.28      2.88      0.01         0.01
  WS02006232WS02006231        0.44      0.44      2.88      0.01         0.01
  WS02006231WS02006230        0.24      0.24      0.52      6.54         0.01
  WS02006230WS02006229        4.02      5.70      4.02      6.63         4.02
  WS02006228WS02006109        2.76      3.38      2.76      6.27         2.76
  WS02006112WS02006115        0.01      0.01      1.34      0.01         0.01
  WS02006111WS02006112        0.01      0.01      6.11      0.01         0.01
  WS02006110WS02006113        0.01      0.01      3.19      0.01         0.01
  WS02006109WS02006110        0.94      0.94      3.38      0.94         0.01
  WS02004406WS02004407        0.01      0.01      0.08      0.01         0.01
  WS02004405WS02004406        0.08      0.23      0.08      1.28         0.08
  WS02004404WS02004405        0.23      0.45      0.23      6.34         0.23
  WS02004403WS02004404        0.01      0.01      0.45      0.01         0.01
  WS02003072WS02003073        0.01      0.01      0.01      5.85         0.01
  HS02004480HS02004478        0.01      0.01      0.01      0.41         0.01
  YS02001759YS02001757        6.15      6.15      6.19      0.01         0.01
  YS02001762YS02001759        6.14      6.14      6.15      0.01         0.01
  YS02001765YS02001762        6.13      6.13      6.14      0.01         0.01
  YS02001770YS02001767        6.12      6.13      6.12      0.40         0.86
  YS02001774YS02001770        6.11      6.11      6.14      0.01         0.01
  YS02001779YS02001774        5.95      5.95      6.14      0.01         0.01
  YS02001649YS02001757        6.14      6.14      6.19      0.01         0.01
  YS02001767YS02001765        6.12      6.12      6.13      0.01         0.01
  YS02006561YS02001783        0.59      0.59      1.44      0.01         0.01
  YS02001783YS02001784        1.44      1.44      1.50      1.32         1.17
  YS02001784YS02001785        1.45      1.50      1.45      2.22         1.44
  YS02001788YS02001790        1.44      1.44      2.60      0.01         0.01
  YS02001790YS02001791        2.60      2.60      2.64      0.01         0.03
  YS02001791YS02001793        2.64      2.64      2.73      0.01         0.01
  YS02001910YS02001907        1.19      1.19      1.69      0.01         0.01
  YS02001786YS02001788        1.44      1.45      1.44      1.86         1.44
  YS02001915YS02001910        0.89      0.89      1.19      0.01         0.01
  YS02001918YS02001915        0.01      0.01      0.89      0.01         0.01
  YS02001923YS02001920        0.01      0.01      0.25      0.01         0.01
  YS02001920YS02001918        0.01      0.01      0.25      0.01         0.01
  YS02001629YS02163301        6.10      6.10      6.11      0.01         0.01
  YS02001619YS02001622        5.81      5.81      5.85      0.01         0.01
  YS02001622YS02001625        5.85      5.85      6.09      0.01         0.01
  YS02001625YS02001629        5.83      5.83      6.09      0.01         0.01
  YS02163301YS02001633        6.11      6.11      6.12      0.01         0.01
  YS02163601YS02164001        6.12      6.12      6.15      0.01         0.01
  YS02164001YS02001641        6.12      6.12      6.13      0.01         0.03
  YS02001641YS02001644        6.13      6.13      6.13      1.37         1.49
  YS02001647YS02001649        6.07      6.07      6.14      0.01         0.01
  YS02006553YS02006556        1.42      1.42      1.76      0.01         0.01
  YS02006556YS02006558        1.57      1.57      1.82      0.01         0.01
  YS02001907YS02006553        2.23      2.23      2.42      0.01         0.01
  YS02006558YS02006561        1.04      1.37      1.04      2.09         1.04
  YS02001633YS02163601        6.12      6.12      6.15      0.01         0.01
  YS02001644YS02001647        6.07      6.07      6.13      0.01         0.01
  YS02001745YS02001748        0.01      0.01      5.60      0.01         0.01
  YS02001748YS02001751        5.68      5.68      5.79      0.01         0.01
  YS02001751YS02001754        5.79      5.79      5.96      0.01         0.01
  YS02001754YS02001757        6.04      6.04      6.19      0.01         0.01
  YS02001882YS02001884        0.92      0.92      0.97      0.01         0.01
  YS02001884YS02001887        1.05      1.05      1.08      0.01         0.01
  YS02001890YS02001895        0.86      0.86      1.20      0.01         0.01
  YS02001895YS02001898        0.83      0.83      0.86      0.01         0.01
  YS02001898YS02001901        0.88      0.88      1.04      0.01         0.01
  YS02001901YS02001904        1.01      1.01      1.04      0.01         0.01
  YS02001904YS02001907        1.01      1.01      1.79      0.01         0.01
  YS02001887YS02001890        1.13      1.13      1.16      0.01         0.01
  YS02001652YS02001649        6.08      6.08      6.14      0.01         0.01
  YS02001655YS02001652        5.83      5.83      6.03      0.01         0.01
  YS02001658YS02001655        5.65      5.65      5.83      0.01         0.01
  YS02001661YS02001658        0.20      0.20      5.65      0.01         0.01
  YS02001664YS02001661        0.01      0.01      1.17      0.01         0.01
  YS02001793JiankangQianchi        2.70      2.70      3.63      0.01         0.01
  YS02001757CaochengTiaoxuchi        5.48      5.48      6.19      0.01         0.01
  
  
  ***************
  Pumping Summary
  ***************
  
  ---------------------------------------------------------------------------------------------------------
                                                  Min       Avg       Max     Total     Power    % Time Off
                        Percent   Number of      Flow      Flow      Flow    Volume     Usage    Pump Curve
  Pump                 Utilized   Start-Ups       LPS       LPS       LPS  10^6 ltr     Kw-hr    Low   High
  ---------------------------------------------------------------------------------------------------------
  CC-Pump-1               65.49           4      0.00    143.32    200.00     2.634      2.96    0.0    5.8
  CC-Pump-2               65.95           6      0.00    143.92    200.00     2.700      3.38    0.0    1.7
  JK-Pump-1               72.33           6      0.00    180.85    300.00     3.248     31.29    0.0    0.0
  JK-Pump-2               74.46           9      0.00    146.33    300.00     2.696     36.40    0.0    0.0
  XR-Pump-1               78.72           4      0.00     76.09     95.00     1.682     17.15    0.0    0.0
  XR-Pump-2               91.48           4      0.00     76.19     95.00     2.024     19.55    0.0    0.0
  XR-Pump-3               82.96          10      0.00     63.57     95.00     1.596     15.44    0.0    0.0
  XR-Pump-4               82.97           7      0.00     67.96     95.00     1.653     16.62    0.0    0.0
  

  Analysis begun on:  Fri Dec 24 11:49:09 2021
  Analysis ended on:  Fri Dec 24 11:49:14 2021
  Total elapsed time: 00:00:05