
  EPA STORM WATER MANAGEMENT MODEL - VERSION 5.1 (Build 5.3.0.dev0)
  --------------------------------------------------------------

  WARNING 04: minimum elevation drop used for Conduit WS02004404WS02004405
  WARNING 03: negative offset ignored for Link YS02001904YS02001907
  
  *********************************************************
  NOTE: The summary statistics displayed in this report are
  based on results found at every computational time step,  
  not just on results from each reporting time step.
  *********************************************************
  
  ****************
  Analysis Options
  ****************
  Flow Units ............... LPS
  Process Models:
    Rainfall/Runoff ........ YES
    RDII ................... NO
    Snowmelt ............... NO
    Groundwater ............ NO
    Flow Routing ........... YES
    Ponding Allowed ........ NO
    Water Quality .......... NO
  Infiltration Method ...... HORTON
  Flow Routing Method ...... DYNWAVE
  Surcharge Method ......... EXTRAN
  Starting Date ............ 08/28/2015 08:00:00
  Ending Date .............. 08/28/2015 15:50:00
  Antecedent Dry Days ...... 8.0
  Report Time Step ......... 00:01:00
  Wet Time Step ............ 00:01:00
  Dry Time Step ............ 00:01:00
  Routing Time Step ........ 5.00 sec
  Variable Time Step ....... YES
  Maximum Trials ........... 8
  Number of Threads ........ 4
  Head Tolerance ........... 0.001500 m
  
  
  **************************        Volume         Depth
  Runoff Quantity Continuity     hectare-m            mm
  **************************     ---------       -------
  Total Precipitation ......         4.854        10.627
  Evaporation Loss .........         0.000         0.000
  Infiltration Loss ........         1.246         2.727
  Surface Runoff ...........         2.607         5.707
  Final Storage ............         1.002         2.194
  Continuity Error (%) .....        -0.015
  
  
  **************************        Volume        Volume
  Flow Routing Continuity        hectare-m      10^6 ltr
  **************************     ---------     ---------
  Dry Weather Inflow .......         0.616         6.165
  Wet Weather Inflow .......         2.606        26.058
  Groundwater Inflow .......         0.000         0.000
  RDII Inflow ..............         0.000         0.000
  External Inflow ..........         0.102         1.024
  External Outflow .........         2.125        21.254
  Flooding Loss ............         0.772         7.721
  Evaporation Loss .........         0.000         0.000
  Exfiltration Loss ........         0.000         0.000
  Initial Stored Volume ....         0.076         0.761
  Final Stored Volume ......         0.559         5.590
  Continuity Error (%) .....        -1.640
  
  
  *************************
  Highest Continuity Errors
  *************************
  Node HS02004842 (17.68%)
  Node YS02001884 (11.57%)
  Node YS02001774 (6.62%)
  Node JK-storage (-6.37%)
  Node YSB1171 (3.62%)
  
  
  ***************************
  Time-Step Critical Elements
  ***************************
  Link 3 (51.18%)
  Link WS02006252WS02006251 (34.76%)
  Link WS02006238WS02006235 (4.57%)
  Link WS02006229WS02006228 (2.50%)
  Link 2 (1.82%)
  
  
  ********************************
  Highest Flow Instability Indexes
  ********************************
  Link WS02006113WS02006111 (35)
  Link YS02001619YS02001622 (34)
  Link YS02001629YS02163301 (32)
  Link YS02163301YS02001633 (32)
  Link YS02163601YS02164001 (31)
  
  
  *************************
  Routing Time Step Summary
  *************************
  Minimum Time Step           :     0.32 sec
  Average Time Step           :     0.78 sec
  Maximum Time Step           :     5.00 sec
  Percent in Steady State     :    -0.00
  Average Iterations per Step :     4.64
  Percent Not Converging      :    25.71
  
  
  ***************************
  Subcatchment Runoff Summary
  ***************************
  
  ------------------------------------------------------------------------------------------------------------------------------
                            Total      Total      Total      Total     Imperv       Perv      Total       Total     Peak  Runoff
                           Precip      Runon       Evap      Infil     Runoff     Runoff     Runoff      Runoff   Runoff   Coeff
  Subcatchment                 mm         mm         mm         mm         mm         mm         mm    10^6 ltr      LPS
  ------------------------------------------------------------------------------------------------------------------------------
  sub0                      10.63       0.00       0.00       0.74       8.62       0.00       8.62        0.01     1.33   0.811
  sub1                      10.63       0.00       0.00       1.17       8.20       0.00       8.20        0.05     9.09   0.772
  sub2                      10.63       0.00       0.00       3.93       5.79       0.00       5.79        0.05     8.42   0.544
  sub3                      10.63       0.00       0.00       3.93       5.75       0.00       5.75        0.13    19.27   0.541
  sub4                      10.63       0.00       0.00       1.17       8.05       0.00       8.05        0.17    23.93   0.757
  sub5                      10.63       0.00       0.00       0.74       8.57       0.00       8.57        0.10    16.17   0.806
  sub7                      10.63       0.00       0.00       0.96       8.41       0.00       8.41        0.03     5.13   0.792
  sub8                      10.63       0.00       0.00       0.96       8.41       0.00       8.41        0.05     9.46   0.791
  sub9                      10.63       0.00       0.00       0.96       8.40       0.00       8.40        0.04     7.08   0.791
  sub10                     10.63       0.00       0.00       0.85       8.48       0.00       8.48        0.09    15.87   0.798
  sub11                     10.63       0.00       0.00       0.85       8.50       0.00       8.50        0.10    17.56   0.800
  sub12                     10.63       0.00       0.00       1.38       8.06       0.00       8.06        0.07    13.15   0.758
  sub14                     10.63       0.00       0.00       0.96       8.40       0.00       8.40        0.08    13.93   0.791
  sub15                     10.63       0.00       0.00       3.19       6.46       0.00       6.46        0.11    19.14   0.608
  sub16                     10.63       0.00       0.00       3.51       6.20       0.00       6.20        0.06    12.01   0.584
  sub17                     10.63       0.00       0.00       3.40       6.29       0.00       6.29        0.05     9.91   0.592
  sub22                     10.63       0.00       0.00       4.57       5.27       0.00       5.27        0.33    59.53   0.496
  sub23                     10.63       0.00       0.00       3.93       5.82       0.00       5.82        0.28    50.05   0.548
  sub60                     10.63       0.00       0.00       1.28       6.54       0.00       6.54        1.98   196.13   0.615
  sub61                     10.63       0.00       0.00       1.81       6.69       0.00       6.69        2.06   224.83   0.630
  sub62                     10.63       0.00       0.00       0.85       7.26       0.00       7.26        2.23   236.97   0.684
  sub63                     10.63       0.00       0.00       3.08       5.87       0.00       5.87        1.78   199.96   0.553
  sub64                     10.63       0.00       0.00       1.59       6.27       0.00       6.27        1.91   187.22   0.590
  sub65                     10.63       0.00       0.00       1.38       6.37       0.00       6.37        1.96   190.91   0.599
  sub66                     10.63       0.00       0.00       3.08       5.39       0.00       5.39        1.65   167.73   0.507
  sub67                     10.63       0.00       0.00       0.85       7.71       0.00       7.71        2.38   272.25   0.726
  sub68                     10.63       0.00       0.00       1.49       7.05       0.00       7.05        2.17   241.26   0.664
  sub69                     10.63       0.00       0.00       1.59       7.35       0.00       7.35        1.72   204.41   0.692
  sub70                     10.63       7.50       0.00       6.16       9.71       0.01       9.71        2.22   229.02   0.536
  sub71                     10.63       0.00       0.00       0.85       7.06       0.00       7.06        1.67   170.86   0.664
  sub72                     10.63       0.00       0.00       0.74       5.52       0.00       5.52        1.12    91.59   0.519
  sub73                     10.63       9.45       0.00       6.83      10.48       0.00      10.49        2.46   215.21   0.522
  sub74                     10.63       0.00       0.00       7.97       2.19       0.00       2.19        0.88   108.49   0.206
  
  
  ******************
  Node Depth Summary
  ******************
  
  ---------------------------------------------------------------------------------
                                 Average  Maximum  Maximum  Time of Max    Reported
                                   Depth    Depth      HGL   Occurrence   Max Depth
  Node                 Type       Meters   Meters   Meters  days hr:min      Meters
  ---------------------------------------------------------------------------------
  WS02001211           JUNCTION     0.68     0.78     5.62     0  03:00        0.78
  WS02001212           JUNCTION     0.40     0.49     5.55     0  03:01        0.49
  WS02001213           JUNCTION     0.64     0.74     5.50     0  03:01        0.74
  WS02003069           JUNCTION     0.47     0.55     5.14     0  03:02        0.55
  WS02003072           JUNCTION     0.53     0.61     4.98     0  03:03        0.61
  WS02003073           JUNCTION     0.32     0.37     4.44     0  03:03        0.37
  WS02003060           JUNCTION     0.41     0.49     5.42     0  03:02        0.49
  WS02003066           JUNCTION     0.25     0.31     5.86     0  02:00        0.31
  WS02003059           JUNCTION     0.70     0.79     5.47     0  03:01        0.79
  WS02003067           JUNCTION     0.60     0.72     6.04     0  02:00        0.72
  WS02004401           JUNCTION     0.71     0.89     6.89     0  01:56        0.89
  WS02004402           JUNCTION     0.74     0.91     6.87     0  01:56        0.91
  WS02004403           JUNCTION     0.76     0.92     6.85     0  01:55        0.92
  WS02004404           JUNCTION     0.84     0.99     6.84     0  01:56        0.99
  WS02004406           JUNCTION     0.84     0.98     6.81     0  01:56        0.98
  WS02004409           JUNCTION     0.53     0.70     6.47     0  01:59        0.70
  WS02004410           JUNCTION     0.55     0.71     6.43     0  01:59        0.71
  WS02004411           JUNCTION     0.56     0.72     6.40     0  02:00        0.72
  WS02004412           JUNCTION     0.58     0.72     6.36     0  02:00        0.72
  WS02004413           JUNCTION     0.73     0.88     6.35     0  02:00        0.88
  WS02004405           JUNCTION     0.83     0.98     6.83     0  01:56        0.98
  WS02006109           JUNCTION     0.80     1.01     7.63     0  01:50        1.01
  WS02006110           JUNCTION     0.79     0.95     7.53     0  01:55        0.95
  WS02006111           JUNCTION     0.23     0.30     7.01     0  01:51        0.30
  WS02006112           JUNCTION     0.89     1.16     7.05     0  01:58        1.12
  WS02006113           JUNCTION     0.37     0.47     7.37     0  01:50        0.47
  WS02006115           JUNCTION     0.61     0.79     6.93     0  01:55        0.79
  WS02006116           JUNCTION     0.69     0.87     6.91     0  01:58        0.87
  WS02006230           JUNCTION     0.79     1.07     7.81     0  01:49        1.07
  WS02006231           JUNCTION     0.52     0.73     7.85     0  01:49        0.73
  WS02006232           JUNCTION     0.66     0.86     7.89     0  01:49        0.86
  WS02006234           JUNCTION     0.59     0.78     7.94     0  01:50        0.78
  WS02006235           JUNCTION     0.62     0.82     7.98     0  02:31        0.81
  WS02006238           JUNCTION     0.64     0.84     7.99     0  02:31        0.84
  WS02006240           JUNCTION     0.54     0.77     8.06     0  02:31        0.76
  WS02006242           JUNCTION     0.60     0.83     8.10     0  02:31        0.82
  WS02006243           JUNCTION     0.48     0.73     8.15     0  02:31        0.71
  WS02006245           JUNCTION     0.46     0.69     8.17     0  02:31        0.68
  WS02006247           JUNCTION     0.47     0.69     8.19     0  02:32        0.69
  WS02006248           JUNCTION     0.41     0.62     8.21     0  02:31        0.62
  WS02006249           JUNCTION     0.44     0.63     8.23     0  02:33        0.63
  WS02006239           JUNCTION     0.60     0.83     8.04     0  02:30        0.81
  WS02006251           JUNCTION     0.44     0.66     8.33     0  02:33        0.66
  WS02006252           JUNCTION     0.38     0.59     8.84     0  07:03        0.59
  WS02006253           JUNCTION     0.46     0.69     8.34     0  02:33        0.69
  WS02006256           JUNCTION     1.08     1.21     8.15     0  01:50        1.21
  WS02004138           JUNCTION     0.16     0.19     7.44     0  04:20        0.19
  WS02004407           JUNCTION     0.24     0.31     6.62     0  01:59        0.31
  WS02006228           JUNCTION     0.80     1.06     7.71     0  01:55        1.06
  WS02006229           JUNCTION     0.78     1.06     7.76     0  01:50        1.06
  WS02006280           JUNCTION     0.07     0.16     8.43     0  01:50        0.16
  WS02006284           JUNCTION     0.37     0.50     8.90     0  01:50        0.50
  WS02006287           JUNCTION     0.10     0.23     9.19     0  01:50        0.23
  WSF200               JUNCTION     0.24     0.32     5.55     0  02:09        0.32
  HS02004901           JUNCTION     0.13     0.24    10.06     0  01:47        0.24
  HS02004881           JUNCTION     0.01     0.03     9.06     0  01:50        0.03
  HS02004876           JUNCTION     0.05     0.11     9.14     0  01:47        0.11
  HS02004870           JUNCTION     0.02     0.05     9.33     0  01:50        0.05
  HS02004862           JUNCTION     0.02     0.05     9.44     0  01:51        0.05
  HS02004856           JUNCTION     0.08     0.11     9.54     0  01:51        0.11
  HS02004852           JUNCTION     0.01     0.03     9.54     0  01:52        0.03
  HS02004848           JUNCTION     0.01     0.03     9.63     0  01:51        0.03
  HS02004842           JUNCTION     0.33     0.36     9.63     0  01:51        0.36
  HS02004837           JUNCTION     0.03     0.05     9.63     0  01:51        0.05
  HS02004830           JUNCTION     0.04     0.07     9.54     0  01:51        0.07
  HS02004824           JUNCTION     0.02     0.05     9.45     0  02:16        0.05
  HS02004817           JUNCTION     0.44     0.54     9.39     0  01:51        0.54
  HS02004807           JUNCTION     0.13     0.22     9.39     0  01:51        0.22
  HS02004802           JUNCTION     0.16     0.25     9.38     0  01:51        0.25
  HS02004799           JUNCTION     0.12     0.28     9.49     0  01:48        0.28
  HS02004792           JUNCTION     0.03     0.11     9.63     0  01:47        0.11
  HS02004788           JUNCTION     0.03     0.08     9.98     0  01:48        0.08
  HS02004785           JUNCTION     0.05     0.14    10.04     0  01:48        0.14
  HS02004777           JUNCTION     0.15     0.26    10.06     0  01:47        0.26
  HS02004770           JUNCTION     0.12     0.23    10.06     0  01:47        0.23
  HS02004480           JUNCTION     0.08     0.21     9.46     0  01:48        0.21
  HS02004479           JUNCTION     0.12     0.25     9.46     0  01:48        0.25
  HS02004478           JUNCTION     0.06     0.14     9.37     0  01:49        0.14
  YS02001745           JUNCTION     0.64     0.86     8.38     0  03:16        0.86
  YS02001748           JUNCTION     1.03     1.46     8.53     0  02:43        1.31
  YS02001751           JUNCTION     1.22     2.04     8.92     0  02:19        1.52
  YS02001754           JUNCTION     1.48     1.96     8.57     0  02:19        1.80
  YS02001762           JUNCTION     1.68     2.03     8.43     0  03:10        2.02
  YS02001765           JUNCTION     1.63     1.98     8.43     0  03:07        1.96
  YS02001767           JUNCTION     1.59     1.93     8.42     0  03:07        1.91
  YS02001770           JUNCTION     1.59     1.92     8.42     0  02:27        1.90
  YS02001774           JUNCTION     1.66     2.00     8.42     0  02:27        1.96
  YS02001779           JUNCTION     1.41     1.68     8.37     0  02:20        1.68
  YS02001882           JUNCTION     0.42     0.85     7.56     0  03:02        0.85
  YS02001884           JUNCTION     0.52     0.94     7.56     0  03:02        0.94
  YS02001759           JUNCTION     1.71     2.07     8.43     0  03:13        2.06
  YS02001887           JUNCTION     0.59     1.02     7.56     0  03:02        1.02
  YS02001890           JUNCTION     0.62     1.05     7.56     0  03:02        1.05
  YS02001898           JUNCTION     0.39     0.81     7.55     0  03:03        0.81
  YS02001901           JUNCTION     0.51     0.94     7.55     0  03:03        0.94
  YS02001904           JUNCTION     0.49     0.92     7.55     0  03:02        0.92
  YS02001907           JUNCTION     0.82     1.25     7.54     0  03:02        1.25
  YS02001910           JUNCTION     0.61     1.04     7.55     0  03:03        1.04
  YS02001915           JUNCTION     0.41     0.83     7.55     0  03:03        0.83
  YS02001918           JUNCTION     0.16     0.49     7.55     0  03:03        0.49
  YS02001619           JUNCTION     1.19     1.61     8.54     0  02:27        1.47
  YS02001629           JUNCTION     1.54     1.85     8.40     0  02:32        1.84
  YS02001641           JUNCTION     1.65     1.94     8.38     0  05:59        1.93
  YS02001644           JUNCTION     1.65     1.92     8.35     0  02:47        1.92
  YS02001652           JUNCTION     1.49     2.16     8.76     0  02:20        2.00
  YS02001655           JUNCTION     1.25     2.20     9.05     0  02:19        1.85
  YS02001920           JUNCTION     0.26     0.55     7.56     0  03:03        0.55
  YS02001923           JUNCTION     0.11     0.30     7.56     0  03:03        0.29
  YS02001926           JUNCTION     0.20     0.26     7.71     0  03:01        0.26
  YS02001929           JUNCTION     0.10     0.14     7.84     0  03:01        0.14
  YS02001658           JUNCTION     0.98     2.30     9.44     0  02:27        1.68
  YS02001661           JUNCTION     0.75     2.27     9.68     0  03:11        1.36
  YS02001664           JUNCTION     0.30     0.57     8.50     0  02:50        0.57
  YS02001622           JUNCTION     1.21     1.62     8.52     0  02:27        1.49
  YS02001633           JUNCTION     1.64     1.96     8.41     0  02:41        1.93
  YS02001649           JUNCTION     1.69     2.05     8.44     0  02:49        2.05
  YS02001757           JUNCTION     1.81     2.17     8.43     0  03:24        2.16
  YS02001895           JUNCTION     0.38     0.81     7.55     0  03:03        0.81
  YS02001625           JUNCTION     1.50     1.78     8.38     0  02:30        1.78
  YS02163301           JUNCTION     1.57     1.89     8.41     0  02:41        1.87
  YS02163601           JUNCTION     1.69     2.00     8.40     0  02:41        1.98
  YS02164001           JUNCTION     1.63     1.93     8.39     0  02:41        1.91
  YS02001647           JUNCTION     1.48     1.83     8.44     0  02:26        1.79
  YSB1154              JUNCTION     0.26     0.40     9.46     0  01:48        0.40
  YSB6556              JUNCTION     0.15     0.29     9.46     0  01:48        0.29
  YSB1174              JUNCTION     0.21     0.35     9.46     0  01:49        0.35
  YSB1171              JUNCTION     0.41     0.55     9.46     0  01:48        0.55
  YS02006553           JUNCTION     0.82     1.25     7.53     0  03:02        1.25
  YS02006561           JUNCTION     0.23     0.56     7.22     0  03:03        0.56
  YS02006556           JUNCTION     0.79     1.21     7.52     0  03:02        1.21
  YS02006558           JUNCTION     0.83     1.25     7.51     0  03:02        1.25
  YS02001783           JUNCTION     0.44     1.55     7.69     0  02:27        1.08
  YS02001784           JUNCTION     0.47     1.69     7.76     0  02:27        1.07
  YS02001786           JUNCTION     0.42     1.97     8.00     0  02:27        0.99
  YS02001788           JUNCTION     0.36     2.00     7.97     0  02:27        0.93
  YS02001790           JUNCTION     0.46     1.96     7.60     0  02:25        1.16
  YS02001791           JUNCTION     0.42     1.67     7.14     0  02:27        1.21
  YS02001793           JUNCTION     0.56     2.39     7.22     0  02:23        1.79
  WS02004139           JUNCTION     0.62     0.72     5.63     0  03:00        0.72
  WSC                  OUTFALL      0.32     0.37     1.04     0  03:03        0.37
  3                    OUTFALL      0.11     0.21     6.21     0  01:50        0.21
  4                    OUTFALL      0.03     0.13     7.13     0  02:34        0.13
  5                    OUTFALL      0.00     0.00     5.00     0  00:00        0.00
  JK-storage           STORAGE      2.46     5.80     6.60     0  02:26        5.80
  CC-storage           STORAGE      1.04     1.37     8.37     0  04:23        1.37
  XR-storage           STORAGE      7.04     7.72     5.72     0  02:28        7.72
  
  
  *******************
  Node Inflow Summary
  *******************
  
  -------------------------------------------------------------------------------------------------
                                  Maximum  Maximum                  Lateral       Total        Flow
                                  Lateral    Total  Time of Max      Inflow      Inflow     Balance
                                   Inflow   Inflow   Occurrence      Volume      Volume       Error
  Node                 Type           LPS      LPS  days hr:min    10^6 ltr    10^6 ltr     Percent
  -------------------------------------------------------------------------------------------------
  WS02001211           JUNCTION      7.35   381.67     0  04:20       0.207        7.28       0.410
  WS02001212           JUNCTION      0.00   378.00     0  03:01           0        7.25       0.238
  WS02001213           JUNCTION      0.00   377.24     0  03:01           0        7.23       0.305
  WS02003069           JUNCTION      0.32   852.29     0  03:02     0.00902        16.3       0.182
  WS02003072           JUNCTION      0.00   852.02     0  03:02           0        16.3       0.224
  WS02003073           JUNCTION      1.82   853.62     0  03:03      0.0514        16.3       0.250
  WS02003060           JUNCTION     16.53   852.19     0  03:01       0.466        16.4       0.175
  WS02003066           JUNCTION      0.00   579.10     0  02:00           0        8.74       0.058
  WS02003059           JUNCTION      0.00   377.74     0  03:01           0        7.21       0.484
  WS02003067           JUNCTION      0.00   579.02     0  02:00           0        8.75       0.117
  WS02004401           JUNCTION      0.00   581.41     0  01:55           0        9.01       0.267
  WS02004402           JUNCTION      0.00   581.27     0  01:55           0        8.99       0.249
  WS02004403           JUNCTION      0.00   580.44     0  01:58           0        8.96       0.224
  WS02004404           JUNCTION      0.16   580.73     0  01:55     0.00457        8.95       0.166
  WS02004406           JUNCTION      0.00   580.55     0  01:56           0        8.91       0.403
  WS02004409           JUNCTION      0.00   580.13     0  01:59           0        8.87       0.218
  WS02004410           JUNCTION      0.00   579.74     0  01:59           0        8.85       0.242
  WS02004411           JUNCTION      0.00   579.50     0  01:59           0        8.83       0.245
  WS02004412           JUNCTION      0.00   579.34     0  02:00           0        8.81       0.260
  WS02004413           JUNCTION      0.00   579.18     0  02:00           0        8.78       0.377
  WS02004405           JUNCTION      0.04   580.63     0  01:55     0.00107        8.93       0.247
  WS02006109           JUNCTION      1.23   576.54     0  01:50      0.0347        9.09       0.220
  WS02006110           JUNCTION      0.00   576.53     0  01:50           0        9.07       0.252
  WS02006111           JUNCTION      0.00   602.89     0  01:51           0        9.04       0.059
  WS02006112           JUNCTION      9.91   592.77     0  01:51       0.054        9.09       0.356
  WS02006113           JUNCTION      0.00   576.81     0  01:50           0        9.05       0.129
  WS02006115           JUNCTION      0.00   600.57     0  01:55           0        9.06       0.261
  WS02006116           JUNCTION      0.00   583.30     0  01:55           0        9.03       0.244
  WS02006230           JUNCTION     10.28   398.25     0  06:22        0.29        7.45       0.211
  WS02006231           JUNCTION      0.00   388.13     0  06:22           0        7.18       0.175
  WS02006232           JUNCTION      0.00   388.12     0  06:22           0        7.19       0.245
  WS02006234           JUNCTION      0.00   389.50     0  05:32           0         7.2       0.146
  WS02006235           JUNCTION      0.00   389.05     0  05:32           0        7.24       0.168
  WS02006238           JUNCTION      0.00   343.48     0  07:10           0        5.18       0.173
  WS02006240           JUNCTION      0.00   337.94     0  07:10           0        5.19       0.307
  WS02006242           JUNCTION      0.00   337.44     0  06:03           0        5.19       0.361
  WS02006243           JUNCTION      0.00   337.57     0  06:01           0        5.19       0.069
  WS02006245           JUNCTION      0.00   338.86     0  02:30           0         5.2       0.283
  WS02006247           JUNCTION      0.00   349.55     0  02:30           0        5.21       0.202
  WS02006248           JUNCTION      0.00   355.60     0  02:30           0        5.22       0.136
  WS02006249           JUNCTION      0.00   442.78     0  02:33           0        5.79       0.268
  WS02006239           JUNCTION      0.00   341.97     0  07:10           0        5.18       0.279
  WS02006251           JUNCTION      0.08   442.37     0  02:33     0.00217        5.82       0.245
  WS02006252           JUNCTION      0.00   400.00     0  02:30           0         5.5       0.009
  WS02006253           JUNCTION      1.33    52.51     0  01:41     0.00698       0.332       2.539
  WS02006256           JUNCTION      0.00   600.00     0  01:50           0        6.51       0.042
  WS02004138           JUNCTION      0.00   379.99     0  05:00           0         7.1       0.066
  WS02004407           JUNCTION      0.00   580.30     0  01:56           0        8.88       0.098
  WS02006228           JUNCTION      0.00   575.31     0  01:50           0        9.07       0.168
  WS02006229           JUNCTION      0.00   575.26     0  01:50           0        9.09       0.146
  WS02006280           JUNCTION      0.00   250.77     0  01:50           0        1.65       0.004
  WS02006284           JUNCTION      0.10   250.79     0  01:50      0.0027        1.65       0.062
  WS02006287           JUNCTION      0.00   250.71     0  01:50           0        1.65       0.044
  WSF200               JUNCTION      0.00   579.13     0  02:01           0        8.74       0.060
  HS02004901           JUNCTION     12.01    12.01     0  01:45      0.0649      0.0651       2.778
  HS02004881           JUNCTION      5.13    49.92     0  01:49      0.0283       0.303       0.106
  HS02004876           JUNCTION      9.09    44.88     0  01:50      0.0545       0.275       0.197
  HS02004870           JUNCTION      9.46    35.90     0  01:50      0.0537       0.221       0.049
  HS02004862           JUNCTION      8.62    26.77     0  01:51      0.0595       0.167       0.103
  HS02004856           JUNCTION      7.08    18.19     0  01:50      0.0404       0.109       1.337
  HS02004852           JUNCTION      0.00    11.37     0  01:51           0      0.0688       0.079
  HS02004848           JUNCTION     19.27    19.27     0  02:15       0.129       0.129       0.035
  HS02004842           JUNCTION      0.00     7.96     0  02:16           0      0.0736      21.477
  HS02004837           JUNCTION     22.22    28.76     0  01:50       0.273       0.333       0.244
  HS02004830           JUNCTION      0.15    28.90     0  01:51     0.00423       0.323       0.383
  HS02004824           JUNCTION     23.98    52.78     0  02:16       0.169       0.492       0.110
  HS02004817           JUNCTION      0.60    53.38     0  02:16      0.0169       0.508       3.394
  HS02004807           JUNCTION     17.56    68.44     0  02:16      0.0987        0.59       0.739
  HS02004802           JUNCTION      0.00    68.45     0  02:16           0       0.587       0.680
  HS02004799           JUNCTION     13.93   155.61     0  01:47      0.0799       0.915       0.289
  HS02004792           JUNCTION     59.81   141.74     0  01:47       0.341       0.835       0.049
  HS02004788           JUNCTION     20.81    82.39     0  01:48       0.158       0.496       0.078
  HS02004785           JUNCTION      0.15    61.69     0  01:47     0.00423       0.339       0.145
  HS02004777           JUNCTION      0.03    61.69     0  01:46    0.000846        0.34       1.552
  HS02004770           JUNCTION     50.05    61.90     0  01:46       0.278       0.341       0.915
  HS02004480           JUNCTION      0.00   184.55     0  01:48           0        1.08       0.105
  HS02004479           JUNCTION      0.00    29.02     0  01:50           0       0.176       0.417
  HS02004478           JUNCTION      0.00   250.68     0  01:49           0        1.65       0.021
  YS02001745           JUNCTION    196.14   284.56     0  02:33        1.98        1.99       0.360
  YS02001748           JUNCTION      0.04   441.41     0  02:33     0.00127        1.99       0.995
  YS02001751           JUNCTION      0.01   382.91     0  02:18     0.00031        1.96       1.220
  YS02001754           JUNCTION      0.26   214.59     0  02:26     0.00733        1.94       1.269
  YS02001762           JUNCTION      0.00   234.30     0  02:53           0        1.84       1.147
  YS02001765           JUNCTION      0.00   234.23     0  02:53           0        1.84       1.326
  YS02001767           JUNCTION      0.54   234.17     0  02:53      0.0151        1.86       1.942
  YS02001770           JUNCTION    237.12   237.12     0  03:00        2.24        2.25       1.415
  YS02001774           JUNCTION      0.00   167.58     0  03:18           0       0.381       7.090
  YS02001779           JUNCTION      0.01   167.91     0  03:18    0.000141       0.346       4.561
  YS02001882           JUNCTION      0.00    10.41     0  02:42           0      0.0148      16.222
  YS02001884           JUNCTION      0.00    18.90     0  02:29           0      0.0494      13.080
  YS02001759           JUNCTION    224.87   455.64     0  02:53        2.06        3.87       0.586
  YS02001887           JUNCTION    272.70   274.52     0  02:30        2.39        2.42       0.334
  YS02001890           JUNCTION      0.00   268.10     0  02:56           0        2.38       0.370
  YS02001898           JUNCTION      0.00   266.81     0  02:30           0        2.36       0.117
  YS02001901           JUNCTION      0.00   265.72     0  02:31           0        2.36       0.275
  YS02001904           JUNCTION      0.00   263.98     0  02:30           0        2.36       0.251
  YS02001907           JUNCTION      0.00   526.89     0  03:06           0        5.21       0.451
  YS02001910           JUNCTION      0.00   268.03     0  03:09           0        2.86       0.396
  YS02001915           JUNCTION    170.88   265.12     0  03:05        1.67        2.86       0.194
  YS02001918           JUNCTION      0.00   111.02     0  03:14           0         1.2       0.142
  YS02001619           JUNCTION    167.73   167.73     0  03:01        1.65        1.65       0.733
  YS02001629           JUNCTION      0.00   225.82     0  02:17           0        1.57       1.838
  YS02001641           JUNCTION      0.00   356.88     0  02:38           0        3.43       0.616
  YS02001644           JUNCTION    187.26   828.97     0  03:14        1.91        6.81       0.383
  YS02001652           JUNCTION      0.00   265.03     0  02:27           0        1.74       1.345
  YS02001655           JUNCTION      0.15   418.57     0  02:14     0.00434        1.76       1.332
  YS02001920           JUNCTION      2.87   109.15     0  03:03      0.0809         1.2       0.228
  YS02001923           JUNCTION      0.04    91.49     0  03:01     0.00106        1.12       0.042
  YS02001926           JUNCTION      0.05    91.60     0  03:01     0.00147        1.12       0.282
  YS02001929           JUNCTION     91.59    91.59     0  03:01        1.12        1.12       0.041
  YS02001658           JUNCTION      0.00   612.36     0  02:29           0        1.85       0.966
  YS02001661           JUNCTION      0.00   599.74     0  02:50           0        2.48      -0.112
  YS02001664           JUNCTION    199.96   382.34     0  02:50        1.78        2.41       0.097
  YS02001622           JUNCTION      0.00   181.22     0  02:18           0        1.64       1.964
  YS02001633           JUNCTION    191.11   351.96     0  03:00        1.96        3.49       0.925
  YS02001649           JUNCTION      0.00   709.17     0  02:48           0        5.07       0.731
  YS02001757           JUNCTION      0.00  1326.04     0  02:49           0        9.25       1.004
  YS02001895           JUNCTION      0.00   274.08     0  02:30           0        2.37       0.200
  YS02001625           JUNCTION      0.00   226.03     0  02:17           0        1.61       2.469
  YS02163301           JUNCTION      0.00   190.32     0  02:28           0        1.56       1.554
  YS02163601           JUNCTION      0.11   352.02     0  03:00      0.0031        3.45       0.874
  YS02164001           JUNCTION      0.00   353.29     0  02:38           0        3.43       0.580
  YS02001647           JUNCTION      0.00   527.25     0  02:41           0        4.05       0.694
  YSB1154              JUNCTION     16.17    16.17     0  01:48       0.097      0.0978       1.500
  YSB6556              JUNCTION      0.00    16.25     0  01:49           0      0.0986       1.284
  YSB1174              JUNCTION     13.15    13.15     0  01:45      0.0704      0.0709       1.844
  YSB1171              JUNCTION      0.00    29.35     0  01:48           0       0.175       3.756
  YS02006553           JUNCTION      0.00   526.90     0  03:06           0         5.2       0.291
  YS02006561           JUNCTION      0.00   753.94     0  03:03           0        7.33       0.007
  YS02006556           JUNCTION      0.00   526.90     0  03:06           0         5.2       0.210
  YS02006558           JUNCTION    242.14   753.93     0  03:03        2.19        7.37       0.071
  YS02001783           JUNCTION      0.00   753.96     0  03:03           0        7.33       0.029
  YS02001784           JUNCTION      1.06   755.14     0  03:03      0.0299        7.36       0.046
  YS02001786           JUNCTION      0.06   755.05     0  03:03     0.00159        7.36       0.042
  YS02001788           JUNCTION      0.07   755.12     0  03:03       0.002        7.36       0.025
  YS02001790           JUNCTION      0.15   755.28     0  03:03     0.00437        7.36       0.030
  YS02001791           JUNCTION      0.00   755.37     0  03:03           0        7.36       0.000
  YS02001793           JUNCTION      0.00   755.43     0  03:03           0        7.36      -0.058
  WS02004139           JUNCTION      0.32   379.72     0  04:20     0.00905         7.1       0.470
  WSC                  OUTFALL       0.00   853.27     0  03:03           0        16.3       0.000
  3                    OUTFALL       0.00   518.80     0  01:50           0        4.41       0.000
  4                    OUTFALL       0.00   158.69     0  02:34           0       0.551       0.000
  5                    OUTFALL       0.00     0.00     0  00:00           0           0       0.000 ltr
  JK-storage           STORAGE       0.00   937.90     0  02:23           0        7.52      -5.986
  CC-storage           STORAGE       0.00  1325.94     0  02:49           0        8.32       0.254
  XR-storage           STORAGE     519.52   519.52     0  03:01        8.98        9.58      -0.000
  
  
  **********************
  Node Surcharge Summary
  **********************
  
  Surcharging occurs when water rises above the top of the highest conduit.
  ---------------------------------------------------------------------
                                               Max. Height   Min. Depth
                                   Hours       Above Crown    Below Rim
  Node                 Type      Surcharged         Meters       Meters
  ---------------------------------------------------------------------
  WS02006109           JUNCTION        3.11          0.191        1.629
  WS02006110           JUNCTION        0.64          0.040        1.810
  WS02006112           JUNCTION        0.84          0.164        1.516
  WS02006231           JUNCTION        0.23          0.021        1.509
  WS02006232           JUNCTION        2.85          0.155        1.325
  WS02006234           JUNCTION        0.54          0.065        1.175
  WS02006235           JUNCTION        1.28          0.107        1.183
  WS02006238           JUNCTION        2.07          0.124        1.306
  WS02006240           JUNCTION        0.42          0.060        1.330
  WS02006242           JUNCTION        1.59          0.104        0.716
  WS02006243           JUNCTION        0.01          0.016        0.754
  WS02006239           JUNCTION        0.58          0.088        1.202
  WS02006252           JUNCTION        2.80          0.193        0.907
  WS02006228           JUNCTION        2.85          0.231        1.969
  YS02001748           JUNCTION        4.32          0.375        0.815
  YS02001751           JUNCTION        5.41          1.038        0.162
  YS02001754           JUNCTION        5.69          0.907        0.243
  YS02001762           JUNCTION        5.94          1.029        0.121
  YS02001765           JUNCTION        5.91          0.976        0.124
  YS02001767           JUNCTION        5.89          0.928        0.102
  YS02001770           JUNCTION        5.81          0.891        0.029
  YS02001774           JUNCTION        5.93          0.995        0.055
  YS02001779           JUNCTION        5.66          0.680        0.000
  YS02001759           JUNCTION        5.97          1.067        0.143
  YS02001890           JUNCTION        0.05          0.003        0.757
  YS02001907           JUNCTION        1.25          0.244        0.706
  YS02001910           JUNCTION        0.22          0.041        1.059
  YS02001619           JUNCTION        5.38          0.610        0.000
  YS02001629           JUNCTION        5.42          0.470        0.000
  YS02001641           JUNCTION        5.92          0.939        0.161
  YS02001644           JUNCTION        5.93          0.920        0.000
  YS02001652           JUNCTION        5.70          1.130        0.000
  YS02001655           JUNCTION        5.44          1.200        0.000
  YS02001658           JUNCTION        4.39          1.300        0.000
  YS02001661           JUNCTION        0.15          1.202        0.188
  YS02001622           JUNCTION        5.48          0.620        0.000
  YS02001633           JUNCTION        5.91          0.936        0.124
  YS02001649           JUNCTION        5.94          1.050        0.000
  YS02001757           JUNCTION        6.03          1.167        0.043
  YS02001625           JUNCTION        5.72          0.780        0.000
  YS02163301           JUNCTION        5.87          0.890        0.140
  YS02163601           JUNCTION        5.95          1.003        0.077
  YS02164001           JUNCTION        5.92          0.933        0.167
  YS02001647           JUNCTION        5.71          0.829        0.071
  YS02006553           JUNCTION        1.32          0.249        0.941
  YS02006556           JUNCTION        0.70          0.169        1.181
  YS02006558           JUNCTION        0.60          0.145        1.255
  YS02001783           JUNCTION        0.97          0.745        0.855
  YS02001784           JUNCTION        1.03          0.895        0.595
  YS02001786           JUNCTION        0.98          1.171        0.259
  YS02001788           JUNCTION        0.95          1.197        0.283
  YS02001790           JUNCTION        1.51          1.157        0.000
  YS02001791           JUNCTION        1.59          0.866        1.054
  YS02001793           JUNCTION        1.76          1.388        1.212
  
  
  *********************
  Node Flooding Summary
  *********************
  
  Flooding refers to all water that overflows a node, whether it ponds or not.
  --------------------------------------------------------------------------
                                                             Total   Maximum
                                 Maximum   Time of Max       Flood    Ponded
                        Hours       Rate    Occurrence      Volume     Depth
  Node                 Flooded       LPS   days hr:min    10^6 ltr    Meters
  --------------------------------------------------------------------------
  YS02001779              1.93    167.78      0  03:18       0.321     0.000
  YS02001619              0.01     49.15      0  02:28       0.000     0.000
  YS02001629              0.01     32.74      0  02:34       0.000     0.000
  YS02001644              2.83    828.94      0  03:14       4.226     0.000
  YS02001652              0.01     61.77      0  02:22       0.000     0.000
  YS02001655              0.01    244.67      0  02:21       0.001     0.000
  YS02001658              0.01    334.43      0  02:29       0.001     0.000
  YS02001622              0.01     36.47      0  02:32       0.000     0.000
  YS02001649              0.06     38.01      0  02:52       0.003     0.000
  YS02001625              0.33     19.50      0  02:37       0.004     0.000
  YS02001790              0.01     94.46      0  02:25       0.000     0.000
  JK-storage              1.21    700.44      0  02:40       1.487     0.000
  XR-storage              3.22    485.81      0  02:40       1.676     0.000
  
  
  **********************
  Storage Volume Summary
  **********************
  
  --------------------------------------------------------------------------------------------------
                         Average     Avg  Evap Exfil       Maximum     Max    Time of Max    Maximum
                          Volume    Pcnt  Pcnt  Pcnt        Volume    Pcnt     Occurrence    Outflow
  Storage Unit           1000 m3    Full  Loss  Loss       1000 m3    Full    days hr:min        LPS
  --------------------------------------------------------------------------------------------------
  JK-storage               0.123      42     0     0         0.291     100       0  02:26     600.00
  CC-storage               2.886      18     0     0         3.815      24       0  04:23     400.00
  XR-storage               0.844      91     0     0         0.926     100       0  02:28     379.99
  
  
  ***********************
  Outfall Loading Summary
  ***********************
  
  -----------------------------------------------------------
                         Flow       Avg       Max       Total
                         Freq      Flow      Flow      Volume
  Outfall Node           Pcnt       LPS       LPS    10^6 ltr
  -----------------------------------------------------------
  WSC                  100.00    646.25    853.27      16.292
  3                     90.77    228.74    518.80       4.411
  4                     41.36     48.26    158.69       0.551
  5                      0.00      0.00      0.00       0.000
  -----------------------------------------------------------
  System                58.03    923.24   1299.24      21.254
  
  
  ********************
  Link Flow Summary
  ********************
  
  -----------------------------------------------------------------------------
                                 Maximum  Time of Max   Maximum    Max/    Max/
                                  |Flow|   Occurrence   |Veloc|    Full    Full
  Link                 Type          LPS  days hr:min     m/sec    Flow   Depth
  -----------------------------------------------------------------------------
  WS02003066WSF200     CONDUIT    579.13     0  02:01      2.84    0.10    0.24
  WS02006287WS02006284 CONDUIT    250.70     0  01:50      1.73    0.12    0.24
  WS02006284WS02006280 CONDUIT    250.77     0  01:50      1.97    0.11    0.22
  WS02006280WS02006229 CONDUIT    250.78     0  01:50      3.17    0.05    0.16
  WS02006229WS02006228 CONDUIT    575.31     0  01:50      1.14    1.91    1.00
  WS02006256WS02006235 CONDUIT    158.11     0  00:13      2.30    1.67    1.00
  WS02006253WS02006251 CONDUIT     59.27     0  02:07      0.51    0.18    0.96
  WS02006252WS02006251 CONDUIT    400.68     0  06:01      3.19    1.47    1.00
  WS02006251WS02006249 CONDUIT    442.78     0  02:33      1.23    1.28    0.92
  WS02006249WS02006248 CONDUIT    355.60     0  02:30      1.23    1.95    0.88
  WS02006248WS02006247 CONDUIT    349.55     0  02:30      1.20    0.76    0.93
  WS02006247WS02006245 CONDUIT    338.86     0  02:30      1.17    2.69    0.98
  WS02006245WS02006243 CONDUIT    337.57     0  06:01      1.22    1.00    0.99
  WS02006243WS02006242 CONDUIT    337.44     0  06:03      1.04    0.72    1.00
  WS02006242WS02006240 CONDUIT    337.94     0  07:10      0.91    1.34    1.00
  WS02006240WS02006239 CONDUIT    341.97     0  07:10      0.96    1.08    1.00
  WS02006239WS02006238 CONDUIT    343.48     0  07:10      0.92    1.10    1.00
  WS02006238WS02006235 CONDUIT    343.49     0  07:10      0.91    0.77    1.00
  WS02006235WS02006234 CONDUIT    389.50     0  05:32      1.02    4.11    1.00
  WS02006234WS02006232 CONDUIT    388.12     0  06:22      1.02    0.79    1.00
  WS02006232WS02006231 CONDUIT    388.13     0  06:22      1.06    0.81    1.00
  WS02006231WS02006230 CONDUIT    387.98     0  06:22      1.33    5.89    0.99
  WS02006230WS02006229 CONDUIT    398.19     0  06:22      1.03    8.86    1.00
  WS02006228WS02006109 CONDUIT    575.31     0  01:50      1.14    2.51    1.00
  WS02006116WS02004401 CONDUIT    581.41     0  01:55      0.80    0.80    0.88
  WS02006115WS02006116 CONDUIT    583.30     0  01:55      0.92    0.75    0.80
  WS02006113WS02006111 CONDUIT    602.89     0  01:51      2.52    0.72    0.48
  WS02006112WS02006115 CONDUIT    600.57     0  01:55      0.81    0.35    0.89
  WS02006111WS02006112 CONDUIT    583.50     0  01:51      1.60    0.28    0.68
  WS02006110WS02006113 CONDUIT    576.81     0  01:50      1.35    0.52    0.80
  WS02006109WS02006110 CONDUIT    576.53     0  01:50      1.15    1.11    1.00
  WS02004411WS02004412 CONDUIT    579.34     0  02:00      0.96    0.82    0.72
  WS02004401WS02004402 CONDUIT    581.27     0  01:55      0.78    0.70    0.90
  WS02004413WS02003067 CONDUIT    579.02     0  02:00      1.16    0.25    0.61
  WS02004412WS02004413 CONDUIT    579.18     0  02:00      0.86    0.39    0.80
  WS02004410WS02004411 CONDUIT    579.50     0  01:59      0.97    0.79    0.71
  WS02004409WS02004410 CONDUIT    579.74     0  01:59      1.01    0.75    0.70
  WS02004407WS02004409 CONDUIT    580.13     0  01:59      1.53    0.21    0.50
  WS02004406WS02004407 CONDUIT    580.30     0  01:56      1.09    0.26    0.64
  WS02004405WS02004406 CONDUIT    580.55     0  01:56      0.74    1.15    0.98
  WS02004404WS02004405 CONDUIT    580.60     0  01:55      0.84    5.69    0.99
  WS02004403WS02004404 CONDUIT    580.57     0  01:55      0.75    0.42    0.96
  WS02004402WS02004403 CONDUIT    580.44     0  01:58      0.77    0.83    0.92
  WS02004139WS02001211 CONDUIT    374.33     0  04:20      0.81    0.47    0.58
  WS02004138WS02004139 CONDUIT    379.40     0  04:20      3.34    0.08    0.43
  WS02003067WS02003066 CONDUIT    579.10     0  02:00      1.26    0.19    0.43
  WS02001213WS02003059 CONDUIT    377.74     0  03:01      0.78    0.62    0.75
  WS02001212WS02001213 CONDUIT    377.24     0  03:01      1.19    0.58    0.45
  WS02001211WS02001212 CONDUIT    378.00     0  03:01      0.74    0.29    0.63
  WS02003072WS02003073 CONDUIT    851.80     0  03:03      1.67    1.84    0.46
  WS02003069WS02003072 CONDUIT    852.02     0  03:02      1.57    0.41    0.48
  WS02003060WS02003069 CONDUIT    851.97     0  03:02      1.82    0.33    0.43
  WS02003059WS02003060 CONDUIT    378.52     0  03:02      0.82    0.25    0.64
  HS02004901HS02004770 CONDUIT     11.86     0  01:47      0.05    0.04    0.34
  HS02004876HS02004881 CONDUIT     44.96     0  01:50      0.68    0.48    0.09
  HS02004870HS02004876 CONDUIT     35.89     0  01:50      0.47    0.02    0.11
  HS02004842HS02004848 CONDUIT      7.96     0  02:16      0.04    0.00    0.28
  HS02004837HS02004842 CONDUIT      8.06     0  02:20      0.42    0.00    0.30
  HS02004830HS02004837 CONDUIT     28.75     0  01:51      0.48    0.03    0.09
  HS02004824HS02004830 CONDUIT     28.90     0  01:52      0.51    0.04    0.08
  HS02004817HS02004824 CONDUIT     52.78     0  02:16      0.18    0.02    0.42
  HS02004770HS02004777 CONDUIT     61.66     0  01:46      0.25    0.11    0.35
  HS02004799HS02004480 CONDUIT    155.55     0  01:47      0.65    0.20    0.34
  HS02004792HS02004799 CONDUIT    141.71     0  01:47      0.74    0.09    0.27
  HS02004788HS02004792 CONDUIT     82.36     0  01:48      0.88    0.05    0.13
  HS02004785HS02004788 CONDUIT     61.65     0  01:48      0.55    0.46    0.16
  HS02004777HS02004785 CONDUIT     61.54     0  01:47      0.30    0.08    0.29
  HS02004480HS02004478 CONDUIT    184.33     0  01:49      1.04    0.78    0.25
  HS02004479HS02004480 CONDUIT     29.25     0  01:51      0.28    0.03    0.33
  HS02004862HS02004870 CONDUIT     26.75     0  01:51      0.52    0.03    0.07
  HS02004848HS02004852 CONDUIT     11.37     0  01:51      0.35    0.01    0.05
  HS02004856HS02004862 CONDUIT     18.17     0  01:51      0.38    0.02    0.07
  HS02004852HS02004856 CONDUIT     11.35     0  01:52      0.16    0.01    0.10
  HS02004802HS02004478 CONDUIT     68.53     0  02:17      0.36    0.06    0.28
  HS02004478WS02006287 CONDUIT    250.71     0  01:50      1.43    0.07    0.19
  HS02004817HS02004807 CONDUIT     53.46     0  02:17      0.14    0.03    0.54
  HS02004807HS02004802 CONDUIT     68.45     0  02:16      0.30    0.13    0.33
  YS02001759YS02001757 CONDUIT    455.47     0  02:53      0.58    0.32    1.00
  YS02001762YS02001759 CONDUIT    234.34     0  02:53      0.30    0.27    1.00
  YS02001765YS02001762 CONDUIT    234.30     0  02:53      0.30    0.22    1.00
  YS02001770YS02001767 CONDUIT    233.64     0  02:53      0.38    0.93    1.00
  YS02001774YS02001770 CONDUIT    167.58     0  03:18      0.24    0.11    1.00
  YS02001779YS02001774 CONDUIT    167.90     0  03:18      0.21    0.08    1.00
  YS02001649YS02001757 CONDUIT    709.14     0  02:48      0.90    0.43    1.00
  YS02001767YS02001765 CONDUIT    234.23     0  02:53      0.35    0.29    1.00
  YS02006561YS02001783 CONDUIT    753.96     0  03:03      2.12    0.39    0.85
  YS02001783YS02001784 CONDUIT    754.08     0  03:03      1.59    1.04    1.00
  YS02001784YS02001785 CONDUIT    755.00     0  03:03      1.72    1.76    1.00
  YS02001788YS02001790 CONDUIT    755.12     0  03:03      2.26    0.56    1.00
  YS02001790YS02001791 CONDUIT    755.37     0  03:03      2.71    0.82    1.00
  YS02001791YS02001793 CONDUIT    755.43     0  03:03      5.52    0.32    1.00
  YS02001910YS02001907 CONDUIT    269.71     0  03:10      0.49    0.15    1.00
  YS02001786YS02001788 CONDUIT    755.05     0  03:03      2.17    1.45    1.00
  YS02001915YS02001910 CONDUIT    268.03     0  03:09      0.56    0.13    0.92
  YS02001918YS02001915 CONDUIT    111.48     0  03:13      0.44    0.06    0.66
  YS02001923YS02001920 CONDUIT    106.28     0  03:03      0.64    0.05    0.42
  YS02001926YS02001923 CONDUIT     91.45     0  03:01      0.74    0.13    0.21
  YS02001929YS02001926 CONDUIT     91.54     0  03:01      0.81    0.04    0.20
  YS02001920YS02001918 CONDUIT    111.02     0  03:14      0.63    0.11    0.52
  YS02001629YS02163301 CONDUIT    190.32     0  02:28      0.24    0.23    1.00
  YS02001619YS02001622 CONDUIT    181.22     0  02:18      0.65    0.27    1.00
  YS02001622YS02001625 CONDUIT    226.03     0  02:17      0.32    0.12    1.00
  YS02001625YS02001629 CONDUIT    225.82     0  02:17      0.29    0.11    1.00
  YS02163301YS02001633 CONDUIT    190.21     0  02:28      0.24    0.18    1.00
  YS02163601YS02164001 CONDUIT    353.29     0  02:38      0.45    0.31    1.00
  YS02164001YS02001641 CONDUIT    356.88     0  02:38      0.45    0.49    1.00
  YS02001641YS02001644 CONDUIT    358.66     0  02:38      0.46    1.16    1.00
  YS02001647YS02001649 CONDUIT    528.59     0  02:41      0.67    0.28    1.00
  YS02006553YS02006556 CONDUIT    526.90     0  03:06      0.67    0.45    1.00
  YS02006556YS02006558 CONDUIT    526.95     0  03:06      0.67    0.42    1.00
  YSB6556YSB1171       CONDUIT     16.52     0  01:50      0.07    0.02    0.60
  YS02001907YS02006553 CONDUIT    526.90     0  03:06      0.59    0.62    1.00
  YS02006558YS02006561 CONDUIT    753.94     0  03:03      3.19    1.67    0.97
  YS02001633YS02163601 CONDUIT    351.91     0  03:00      0.45    0.37    1.00
  YS02001644YS02001647 CONDUIT    527.25     0  02:41      0.67    0.31    1.00
  YS02001745YS02001748 CONDUIT    441.36     0  02:33      1.51    0.17    0.93
  YS02001748YS02001751 CONDUIT    382.90     0  02:18      1.12    0.19    1.00
  YS02001751YS02001754 CONDUIT    214.33     0  02:26      0.97    0.10    1.00
  YS02001754YS02001757 CONDUIT    208.56     0  03:00      0.33    0.08    1.00
  YS02001882YS02001884 CONDUIT     14.09     0  02:30      0.12    0.02    0.87
  YS02001884YS02001887 CONDUIT     18.90     0  02:29      0.09    0.03    0.96
  YS02001890YS02001895 CONDUIT    274.08     0  02:30      0.44    0.13    0.90
  YS02001895YS02001898 CONDUIT    266.81     0  02:30      0.55    0.46    0.80
  YS02001898YS02001901 CONDUIT    265.72     0  02:31      0.48    0.17    0.88
  YS02001901YS02001904 CONDUIT    263.98     0  02:30      0.44    0.41    0.93
  YS02001904YS02001907 CONDUIT    271.38     0  02:23      0.38    0.09    0.96
  YS02001887YS02001890 CONDUIT    268.10     0  02:56      0.38    0.46    1.00
  YS02001652YS02001649 CONDUIT    264.71     0  02:27      0.58    0.13    1.00
  YS02001655YS02001652 CONDUIT    265.03     0  02:27      1.05    0.13    1.00
  YS02001658YS02001655 CONDUIT    418.42     0  02:14      1.29    0.18    1.00
  YS02001661YS02001658 CONDUIT    612.36     0  02:29      1.59    0.24    1.00
  YS02001664YS02001661 CONDUIT    599.74     0  02:50      1.47    0.19    0.71
  YSB1154YSB6556       CONDUIT     16.25     0  01:49      0.16    0.03    0.49
  YSB1174YSB1171       CONDUIT     13.26     0  01:45      0.06    0.02    0.61
  YSB1171HS02004479    CONDUIT     29.02     0  01:50      0.54    0.02    0.47
  HS02004881HS02006253 CONDUIT     49.92     0  01:50      1.79    0.01    0.27
  YS02001793JiankangQianchi CONDUIT    937.90     0  02:23     15.02    0.07    1.00
  YS02001757CaochengTiaoxuchi CONDUIT   1325.94     0  02:49      2.19    0.58    1.00
  WSF200WS02003060     CONDUIT    579.21     0  02:01      2.02    0.13    0.33
  1                    CONDUIT    853.27     0  03:03      3.19    0.30    0.37
  2                    CONDUIT    158.69     0  02:34      5.50    0.38    0.43
  3                    CONDUIT    518.80     0  01:50      9.85    0.83    0.70
  4                    CONDUIT      0.00     0  00:00      0.00    0.00    0.00
  CC-Pump-1            PUMP       200.00     0  01:43              1.00
  CC-Pump-2            PUMP       200.00     0  02:30              1.00
  JK-Pump-1            PUMP       300.00     0  01:50              1.00
  JK-Pump-2            PUMP       300.00     0  01:47              1.00
  XR-Pump-1            PUMP        95.00     0  00:00              1.00
  XR-Pump-2            PUMP        95.00     0  00:00              1.00
  XR-Pump-3            PUMP        95.00     0  00:00              1.00
  XR-Pump-4            PUMP        95.00     0  01:00              1.00
  
  
  ***************************
  Flow Classification Summary
  ***************************
  
  -------------------------------------------------------------------------------------
                      Adjusted    ---------- Fraction of Time in Flow Class ---------- 
                       /Actual         Up    Down  Sub   Sup   Up    Down  Norm  Inlet 
  Conduit               Length    Dry  Dry   Dry   Crit  Crit  Crit  Crit  Ltd   Ctrl  
  -------------------------------------------------------------------------------------
  WS02003066WSF200        1.00   0.06  0.00  0.00  0.00  0.94  0.00  0.00  0.65  0.00
  WS02006287WS02006284    1.00   0.03  0.01  0.00  0.58  0.38  0.00  0.00  0.70  0.00
  WS02006284WS02006280    1.00   0.04  0.00  0.00  0.00  0.00  0.00  0.96  0.00  0.00
  WS02006280WS02006229    1.00   0.04  0.00  0.00  0.00  0.00  0.00  0.96  0.00  0.00
  WS02006229WS02006228    1.00   0.00  0.00  0.00  1.00  0.00  0.00  0.00  0.00  0.00
  WS02006256WS02006235    1.00   0.00  0.00  0.00  1.00  0.00  0.00  0.00  0.00  0.00
  WS02006253WS02006251    1.00   0.02  0.01  0.00  0.96  0.00  0.00  0.00  0.00  0.00
  WS02006252WS02006251    1.00   0.06  0.00  0.00  0.00  0.00  0.94  0.00  0.00  0.00
  WS02006251WS02006249    1.00   0.00  0.00  0.00  1.00  0.00  0.00  0.00  0.19  0.00
  WS02006249WS02006248    1.00   0.00  0.00  0.00  0.93  0.00  0.07  0.00  0.00  0.00
  WS02006248WS02006247    1.00   0.00  0.00  0.00  0.98  0.00  0.00  0.02  0.07  0.00
  WS02006247WS02006245    1.00   0.00  0.00  0.00  0.98  0.00  0.00  0.02  0.00  0.00
  WS02006245WS02006243    1.00   0.01  0.00  0.00  0.96  0.00  0.00  0.03  0.01  0.00
  WS02006243WS02006242    1.00   0.01  0.00  0.00  0.99  0.00  0.00  0.00  0.15  0.00
  WS02006242WS02006240    1.00   0.00  0.00  0.00  0.99  0.00  0.00  0.00  0.00  0.00
  WS02006240WS02006239    1.00   0.00  0.00  0.00  0.97  0.00  0.00  0.02  0.01  0.00
  WS02006239WS02006238    1.00   0.00  0.00  0.00  1.00  0.00  0.00  0.00  0.00  0.00
  WS02006238WS02006235    1.00   0.00  0.00  0.00  1.00  0.00  0.00  0.00  0.00  0.00
  WS02006235WS02006234    1.00   0.00  0.00  0.00  0.97  0.00  0.02  0.00  0.00  0.00
  WS02006234WS02006232    1.00   0.00  0.00  0.00  1.00  0.00  0.00  0.00  0.00  0.00
  WS02006232WS02006231    1.00   0.00  0.00  0.00  0.99  0.00  0.00  0.00  0.00  0.00
  WS02006231WS02006230    1.00   0.00  0.00  0.00  0.80  0.00  0.20  0.00  0.00  0.00
  WS02006230WS02006229    1.00   0.00  0.00  0.00  0.99  0.00  0.00  0.01  0.00  0.00
  WS02006228WS02006109    1.00   0.00  0.00  0.00  1.00  0.00  0.00  0.00  0.00  0.00
  WS02006116WS02004401    1.00   0.02  0.00  0.00  0.98  0.00  0.00  0.00  0.00  0.00
  WS02006115WS02006116    1.00   0.02  0.00  0.00  0.97  0.00  0.00  0.01  0.00  0.00
  WS02006113WS02006111    1.00   0.02  0.00  0.00  0.00  0.98  0.00  0.00  0.11  0.00
  WS02006112WS02006115    1.00   0.02  0.00  0.00  0.98  0.00  0.00  0.00  0.00  0.00
  WS02006111WS02006112    1.00   0.02  0.00  0.00  0.98  0.00  0.00  0.00  0.96  0.00
  WS02006110WS02006113    1.00   0.00  0.01  0.00  0.98  0.00  0.00  0.00  0.00  0.00
  WS02006109WS02006110    1.00   0.00  0.00  0.00  1.00  0.00  0.00  0.00  0.00  0.00
  WS02004411WS02004412    1.00   0.04  0.00  0.00  0.96  0.00  0.00  0.00  0.00  0.00
  WS02004401WS02004402    1.00   0.02  0.00  0.00  0.98  0.00  0.00  0.00  0.00  0.00
  WS02004413WS02003067    1.00   0.04  0.01  0.00  0.00  0.00  0.95  0.00  0.00  0.00
  WS02004412WS02004413    1.00   0.04  0.00  0.00  0.96  0.00  0.00  0.00  0.03  0.00
  WS02004410WS02004411    1.00   0.04  0.00  0.00  0.96  0.00  0.00  0.00  0.02  0.00
  WS02004409WS02004410    1.00   0.03  0.00  0.00  0.97  0.00  0.00  0.00  0.00  0.00
  WS02004407WS02004409    1.00   0.03  0.00  0.00  0.96  0.00  0.00  0.00  0.87  0.00
  WS02004406WS02004407    1.00   0.00  0.03  0.00  0.97  0.00  0.00  0.00  0.00  0.00
  WS02004405WS02004406    1.00   0.00  0.00  0.00  1.00  0.00  0.00  0.00  0.03  0.00
  WS02004404WS02004405    1.00   0.00  0.00  0.00  1.00  0.00  0.00  0.00  0.00  0.00
  WS02004403WS02004404    1.00   0.00  0.02  0.00  0.98  0.00  0.00  0.00  0.01  0.00
  WS02004402WS02004403    1.00   0.02  0.00  0.00  0.98  0.00  0.00  0.00  0.00  0.00
  WS02004139WS02001211    1.00   0.00  0.00  0.00  1.00  0.00  0.00  0.00  0.00  0.00
  WS02004138WS02004139    1.00   0.00  0.00  0.00  1.00  0.00  0.00  0.00  1.00  0.00
  WS02003067WS02003066    1.00   0.05  0.00  0.00  0.95  0.00  0.00  0.00  0.00  0.00
  WS02001213WS02003059    1.00   0.00  0.00  0.00  1.00  0.00  0.00  0.00  0.00  0.00
  WS02001212WS02001213    1.00   0.00  0.00  0.00  0.91  0.00  0.09  0.00  0.00  0.00
  WS02001211WS02001212    1.00   0.00  0.00  0.00  1.00  0.00  0.00  0.00  0.00  0.00
  WS02003072WS02003073    1.00   0.00  0.00  0.00  0.00  0.00  0.00  1.00  0.00  0.00
  WS02003069WS02003072    1.00   0.00  0.00  0.00  1.00  0.00  0.00  0.00  0.19  0.00
  WS02003060WS02003069    1.00   0.00  0.00  0.00  0.99  0.01  0.00  0.00  0.09  0.00
  WS02003059WS02003060    1.00   0.00  0.00  0.00  1.00  0.00  0.00  0.00  0.01  0.00
  HS02004901HS02004770    1.00   0.04  0.00  0.00  0.96  0.00  0.00  0.00  0.00  0.00
  HS02004876HS02004881    1.00   0.00  0.00  0.00  1.00  0.00  0.00  0.00  0.00  0.00
  HS02004870HS02004876    1.00   0.00  0.00  0.00  0.99  0.01  0.00  0.00  0.95  0.00
  HS02004842HS02004848    1.00   0.00  0.04  0.00  0.96  0.00  0.00  0.00  0.58  0.00
  HS02004837HS02004842    1.00   0.00  0.00  0.00  1.00  0.00  0.00  0.00  0.11  0.00
  HS02004830HS02004837    1.00   0.00  0.00  0.00  1.00  0.00  0.00  0.00  0.99  0.00
  HS02004824HS02004830    1.00   0.00  0.00  0.00  1.00  0.00  0.00  0.00  0.00  0.00
  HS02004817HS02004824    1.00   0.00  0.00  0.00  1.00  0.00  0.00  0.00  1.00  0.00
  HS02004770HS02004777    1.00   0.00  0.04  0.00  0.96  0.00  0.00  0.00  0.03  0.00
  HS02004799HS02004480    1.00   0.00  0.01  0.00  0.96  0.00  0.03  0.00  0.00  0.00
  HS02004792HS02004799    1.00   0.00  0.00  0.00  1.00  0.00  0.00  0.00  0.98  0.00
  HS02004788HS02004792    1.00   0.00  0.00  0.00  1.00  0.00  0.00  0.00  0.98  0.00
  HS02004785HS02004788    1.00   0.00  0.00  0.00  1.00  0.00  0.00  0.00  0.00  0.00
  HS02004777HS02004785    1.00   0.00  0.00  0.00  1.00  0.00  0.00  0.00  0.12  0.00
  HS02004480HS02004478    1.00   0.04  0.00  0.00  0.64  0.00  0.00  0.32  0.00  0.00
  HS02004479HS02004480    1.00   0.01  0.00  0.00  0.99  0.00  0.00  0.00  0.12  0.00
  HS02004862HS02004870    1.00   0.00  0.00  0.00  1.00  0.00  0.00  0.00  0.04  0.00
  HS02004848HS02004852    1.00   0.04  0.00  0.00  0.96  0.00  0.00  0.00  0.77  0.00
  HS02004856HS02004862    1.00   0.00  0.04  0.00  0.96  0.00  0.00  0.00  0.83  0.00
  HS02004852HS02004856    1.00   0.04  0.00  0.00  0.96  0.00  0.00  0.00  0.86  0.00
  HS02004802HS02004478    1.00   0.04  0.00  0.00  0.96  0.00  0.00  0.00  0.03  0.00
  HS02004478WS02006287    1.00   0.04  0.00  0.00  0.72  0.24  0.00  0.00  0.68  0.00
  HS02004817HS02004807    1.00   0.00  0.04  0.00  0.96  0.00  0.00  0.00  0.01  0.00
  HS02004807HS02004802    1.00   0.04  0.00  0.00  0.96  0.00  0.00  0.00  0.00  0.00
  YS02001759YS02001757    1.00   0.00  0.00  0.00  1.00  0.00  0.00  0.00  0.16  0.00
  YS02001762YS02001759    1.00   0.00  0.00  0.00  1.00  0.00  0.00  0.00  0.03  0.00
  YS02001765YS02001762    1.00   0.00  0.00  0.00  1.00  0.00  0.00  0.00  0.14  0.00
  YS02001770YS02001767    1.00   0.00  0.00  0.00  1.00  0.00  0.00  0.00  0.00  0.00
  YS02001774YS02001770    1.00   0.00  0.04  0.00  0.96  0.00  0.00  0.00  0.03  0.00
  YS02001779YS02001774    1.00   0.00  0.00  0.00  1.00  0.00  0.00  0.00  0.18  0.00
  YS02001649YS02001757    1.00   0.00  0.00  0.00  1.00  0.00  0.00  0.00  0.16  0.00
  YS02001767YS02001765    1.00   0.00  0.00  0.00  1.00  0.00  0.00  0.00  0.00  0.00
  YS02006561YS02001783    1.00   0.05  0.00  0.00  0.24  0.72  0.00  0.00  0.57  0.00
  YS02001783YS02001784    1.00   0.00  0.05  0.00  0.95  0.00  0.00  0.00  0.00  0.00
  YS02001784YS02001785    1.00   0.00  0.00  0.00  1.00  0.00  0.00  0.00  0.17  0.00
  YS02001788YS02001790    1.00   0.00  0.00  0.00  0.31  0.69  0.00  0.00  0.53  0.00
  YS02001790YS02001791    1.00   0.00  0.00  0.00  0.28  0.72  0.00  0.00  0.56  0.00
  YS02001791YS02001793    1.00   0.00  0.00  0.00  0.30  0.70  0.00  0.00  0.03  0.00
  YS02001910YS02001907    1.00   0.00  0.00  0.00  0.99  0.00  0.00  0.00  0.12  0.00
  YS02001786YS02001788    1.00   0.00  0.00  0.00  0.30  0.70  0.00  0.00  0.00  0.00
  YS02001915YS02001910    1.00   0.00  0.00  0.00  0.99  0.01  0.00  0.00  0.16  0.00
  YS02001918YS02001915    1.00   0.00  0.00  0.00  1.00  0.00  0.00  0.00  0.60  0.00
  YS02001923YS02001920    1.00   0.00  0.00  0.00  1.00  0.00  0.00  0.00  0.93  0.00
  YS02001926YS02001923    1.00   0.00  0.03  0.00  0.00  0.00  0.97  0.00  0.00  0.00
  YS02001929YS02001926    1.00   0.00  0.04  0.00  0.96  0.00  0.00  0.00  0.87  0.00
  YS02001920YS02001918    1.00   0.00  0.00  0.00  1.00  0.00  0.00  0.00  0.00  0.00
  YS02001629YS02163301    1.00   0.04  0.00  0.00  0.96  0.00  0.00  0.00  0.00  0.00
  YS02001619YS02001622    1.00   0.04  0.00  0.00  0.96  0.00  0.00  0.00  0.00  0.00
  YS02001622YS02001625    1.00   0.04  0.00  0.00  0.96  0.00  0.00  0.00  0.04  0.00
  YS02001625YS02001629    1.00   0.04  0.01  0.00  0.94  0.00  0.01  0.00  0.00  0.00
  YS02163301YS02001633    1.00   0.00  0.04  0.00  0.96  0.00  0.00  0.00  0.00  0.00
  YS02163601YS02164001    1.00   0.00  0.03  0.00  0.97  0.00  0.00  0.00  0.00  0.00
  YS02164001YS02001641    1.00   0.00  0.03  0.00  0.97  0.00  0.00  0.00  0.06  0.00
  YS02001641YS02001644    1.00   0.00  0.00  0.00  1.00  0.00  0.00  0.00  0.00  0.00
  YS02001647YS02001649    1.00   0.00  0.04  0.00  0.96  0.00  0.00  0.00  0.01  0.00
  YS02006553YS02006556    1.00   0.00  0.00  0.00  1.00  0.00  0.00  0.00  0.03  0.00
  YS02006556YS02006558    1.00   0.00  0.00  0.00  1.00  0.00  0.00  0.00  0.00  0.00
  YSB6556YSB1171          1.00   0.02  0.02  0.00  0.96  0.00  0.00  0.00  0.00  0.00
  YS02001907YS02006553    1.00   0.00  0.00  0.00  1.00  0.00  0.00  0.00  0.00  0.00
  YS02006558YS02006561    1.00   0.05  0.00  0.00  0.07  0.88  0.00  0.00  0.52  0.00
  YS02001633YS02163601    1.00   0.00  0.00  0.00  1.00  0.00  0.00  0.00  0.15  0.00
  YS02001644YS02001647    1.00   0.00  0.04  0.00  0.96  0.00  0.00  0.00  0.00  0.00
  YS02001745YS02001748    1.00   0.00  0.00  0.00  0.90  0.01  0.00  0.08  0.05  0.00
  YS02001748YS02001751    1.00   0.00  0.00  0.00  0.98  0.02  0.00  0.00  0.14  0.00
  YS02001751YS02001754    1.00   0.00  0.00  0.00  0.95  0.00  0.00  0.05  0.02  0.00
  YS02001754YS02001757    1.00   0.00  0.00  0.00  1.00  0.00  0.00  0.00  0.18  0.00
  YS02001882YS02001884    1.00   0.04  0.00  0.00  0.96  0.00  0.00  0.00  0.00  0.00
  YS02001884YS02001887    1.00   0.03  0.01  0.00  0.97  0.00  0.00  0.00  0.00  0.00
  YS02001890YS02001895    1.00   0.00  0.04  0.00  0.96  0.00  0.00  0.00  0.00  0.00
  YS02001895YS02001898    1.00   0.04  0.00  0.00  0.95  0.00  0.01  0.00  0.00  0.00
  YS02001898YS02001901    1.00   0.04  0.00  0.00  0.96  0.00  0.00  0.00  0.01  0.00
  YS02001901YS02001904    1.00   0.04  0.00  0.00  0.96  0.00  0.00  0.00  0.00  0.00
  YS02001904YS02001907    1.00   0.00  0.04  0.00  0.96  0.00  0.00  0.00  0.00  0.00
  YS02001887YS02001890    1.00   0.00  0.00  0.00  0.99  0.00  0.01  0.00  0.00  0.00
  YS02001652YS02001649    1.00   0.00  0.00  0.00  1.00  0.00  0.00  0.00  0.16  0.00
  YS02001655YS02001652    1.00   0.00  0.00  0.00  0.95  0.00  0.00  0.05  0.02  0.00
  YS02001658YS02001655    1.00   0.00  0.04  0.00  0.94  0.02  0.00  0.00  0.05  0.00
  YS02001661YS02001658    1.00   0.04  0.00  0.00  0.90  0.06  0.00  0.00  0.05  0.00
  YS02001664YS02001661    1.00   0.04  0.00  0.00  0.86  0.10  0.00  0.00  0.21  0.00
  YSB1154YSB6556          1.00   0.04  0.00  0.00  0.96  0.00  0.00  0.00  0.02  0.00
  YSB1174YSB1171          1.00   0.02  0.01  0.00  0.97  0.00  0.00  0.00  0.00  0.00
  YSB1171HS02004479       1.00   0.02  0.00  0.00  0.98  0.00  0.00  0.01  0.10  0.00
  HS02004881HS02006253    1.00   0.02  0.00  0.00  0.80  0.03  0.00  0.15  0.68  0.00
  YS02001793JiankangQianchi    1.00   0.00  0.00  0.00  0.60  0.40  0.00  0.00  0.31  0.00
  YS02001757CaochengTiaoxuchi    1.00   0.00  0.06  0.00  0.94  0.01  0.00  0.00  0.00  0.00
  WSF200WS02003060        1.00   0.00  0.06  0.00  0.74  0.20  0.00  0.00  0.15  0.00
  1                       1.00   0.00  0.00  0.00  0.00  1.00  0.00  0.00  0.30  0.00
  2                       1.00   0.58  0.00  0.00  0.00  0.42  0.00  0.00  0.08  0.00
  3                       1.00   0.09  0.00  0.00  0.00  0.91  0.00  0.00  0.06  0.00
  4                       1.00   1.00  0.00  0.00  0.00  0.00  0.00  0.00  0.00  0.00
  
  
  *************************
  Conduit Surcharge Summary
  *************************
  
  ----------------------------------------------------------------------------
                                                           Hours        Hours 
                         --------- Hours Full --------   Above Full   Capacity
  Conduit                Both Ends  Upstream  Dnstream   Normal Flow   Limited
  ----------------------------------------------------------------------------
  WS02006229WS02006228        2.84      3.37      2.84      5.57         2.84
  WS02006256WS02006235        6.31      6.31      7.65      3.11         0.01
  WS02006252WS02006251        1.71      1.71      2.80      2.52         0.01
  WS02006251WS02006249        0.01      0.01      0.01      1.74         0.01
  WS02006249WS02006248        0.01      0.01      0.01      5.02         0.01
  WS02006247WS02006245        0.01      0.01      0.01      5.38         0.01
  WS02006245WS02006243        0.01      0.01      0.01      0.01         0.01
  WS02006243WS02006242        0.08      0.08      1.59      0.01         0.01
  WS02006242WS02006240        0.42      0.42      2.12      2.70         0.01
  WS02006240WS02006239        0.48      0.49      0.58      0.27         0.01
  WS02006239WS02006238        1.87      1.88      2.07      0.69         0.45
  WS02006238WS02006235        1.84      1.84      2.52      0.01         0.01
  WS02006235WS02006234        0.54      0.54      1.28      6.33         0.01
  WS02006234WS02006232        0.64      0.64      2.85      0.01         0.01
  WS02006232WS02006231        0.23      0.23      2.85      0.01         0.01
  WS02006231WS02006230        0.01      0.01      0.29      6.32         0.01
  WS02006230WS02006229        4.72      5.41      4.72      6.42         4.72
  WS02006228WS02006109        3.11      3.94      3.11      5.90         3.11
  WS02006112WS02006115        0.01      0.01      0.84      0.01         0.01
  WS02006111WS02006112        0.01      0.01      5.61      0.01         0.01
  WS02006110WS02006113        0.01      0.01      3.64      0.01         0.01
  WS02006109WS02006110        0.64      0.64      3.94      0.66         0.01
  WS02004405WS02004406        0.01      0.01      0.01      0.76         0.01
  WS02004404WS02004405        0.01      0.01      0.01      6.25         0.01
  WS02003072WS02003073        0.01      0.01      0.01      5.91         0.01
  YS02001759YS02001757        5.96      5.96      6.03      0.01         0.01
  YS02001762YS02001759        5.94      5.94      5.96      0.01         0.01
  YS02001765YS02001762        5.91      5.91      5.94      0.01         0.01
  YS02001770YS02001767        5.87      5.88      5.89      0.01         0.88
  YS02001774YS02001770        5.81      5.81      5.93      0.01         0.01
  YS02001779YS02001774        5.66      5.66      5.93      0.01         0.01
  YS02001649YS02001757        5.94      5.94      6.03      0.01         0.01
  YS02001767YS02001765        5.89      5.89      5.91      0.01         0.01
  YS02006561YS02001783        0.01      0.01      0.97      0.01         0.01
  YS02001783YS02001784        0.97      0.97      1.03      0.31         0.34
  YS02001784YS02001785        0.98      1.03      0.98      1.92         0.98
  YS02001788YS02001790        0.95      0.95      1.51      0.01         0.01
  YS02001790YS02001791        1.51      1.51      1.59      0.01         0.01
  YS02001791YS02001793        1.59      1.59      1.82      0.01         0.01
  YS02001910YS02001907        0.22      0.22      1.25      0.01         0.01
  YS02001786YS02001788        0.95      0.98      0.95      1.45         0.94
  YS02001915YS02001910        0.01      0.01      0.22      0.01         0.01
  YS02001629YS02163301        5.80      5.80      5.87      0.01         0.01
  YS02001619YS02001622        5.38      5.38      5.48      0.01         0.02
  YS02001622YS02001625        5.48      5.48      5.72      0.01         0.01
  YS02001625YS02001629        5.42      5.42      5.72      0.01         0.01
  YS02163301YS02001633        5.87      5.87      5.92      0.01         0.01
  YS02163601YS02164001        5.92      5.92      5.95      0.01         0.01
  YS02164001YS02001641        5.92      5.92      5.92      0.01         0.04
  YS02001641YS02001644        5.92      5.92      5.93      0.71         1.37
  YS02001647YS02001649        5.71      5.71      5.94      0.01         0.01
  YS02006553YS02006556        0.70      0.70      1.32      0.01         0.01
  YS02006556YS02006558        1.02      1.02      1.40      0.01         0.01
  YS02001907YS02006553        1.92      1.92      2.14      0.01         0.01
  YS02006558YS02006561        0.01      0.60      0.01      1.76         0.01
  YS02001633YS02163601        5.91      5.91      5.95      0.01         0.01
  YS02001644YS02001647        5.71      5.71      5.93      0.01         0.01
  YS02001745YS02001748        0.01      0.01      4.31      0.01         0.01
  YS02001748YS02001751        4.95      4.95      5.41      0.01         0.01
  YS02001751YS02001754        5.41      5.41      5.69      0.01         0.01
  YS02001754YS02001757        5.71      5.71      6.03      0.01         0.01
  YS02001890YS02001895        0.01      0.01      0.27      0.01         0.01
  YS02001904YS02001907        0.01      0.01      1.34      0.01         0.01
  YS02001887YS02001890        0.05      0.05      0.16      0.01         0.01
  YS02001652YS02001649        5.73      5.73      5.94      0.01         0.01
  YS02001655YS02001652        5.44      5.44      5.70      0.01         0.01
  YS02001658YS02001655        4.39      4.39      5.44      0.01         0.01
  YS02001661YS02001658        0.14      0.14      4.39      0.01         0.01
  YS02001664YS02001661        0.01      0.01      0.87      0.01         0.01
  YS02001793JiankangQianchi        1.76      1.76      3.58      0.01         0.01
  YS02001757CaochengTiaoxuchi        5.05      5.05      6.03      0.01         0.01
  
  
  ***************
  Pumping Summary
  ***************
  
  ---------------------------------------------------------------------------------------------------------
                                                  Min       Avg       Max     Total     Power    % Time Off
                        Percent   Number of      Flow      Flow      Flow    Volume     Usage    Pump Curve
  Pump                 Utilized   Start-Ups       LPS       LPS       LPS  10^6 ltr     Kw-hr    Low   High
  ---------------------------------------------------------------------------------------------------------
  CC-Pump-1               55.59           5      0.00    147.65    200.00     2.387      4.19    0.0    8.2
  CC-Pump-2               74.73           7      0.00    145.85    200.00     3.111      4.45    0.0    8.9
  JK-Pump-1               72.33           6      0.00    158.70    300.00     2.546     29.41    0.0    0.0
  JK-Pump-2               87.23           7      0.00    202.34    300.00     3.958     46.28    0.0    0.0
  XR-Pump-1               93.61           6      0.00     81.54     95.00     2.109     16.56    0.0    0.0
  XR-Pump-2               82.98           7      0.00     64.42     95.00     1.511     10.93    0.0    0.0
  XR-Pump-3               93.61           5      0.00     73.80     95.00     2.024     16.04    0.0    0.0
  XR-Pump-4               78.70          10      0.00     65.92     95.00     1.453     11.06    0.0    0.0
  

  Analysis begun on:  Fri Dec 24 12:01:28 2021
  Analysis ended on:  Fri Dec 24 12:01:32 2021
  Total elapsed time: 00:00:04