
  EPA STORM WATER MANAGEMENT MODEL - VERSION 5.1 (Build 5.3.0.dev0)
  --------------------------------------------------------------

  WARNING 04: minimum elevation drop used for Conduit WS02004404WS02004405
  WARNING 03: negative offset ignored for Link YS02001904YS02001907
  
  *********************************************************
  NOTE: The summary statistics displayed in this report are
  based on results found at every computational time step,  
  not just on results from each reporting time step.
  *********************************************************
  
  ****************
  Analysis Options
  ****************
  Flow Units ............... LPS
  Process Models:
    Rainfall/Runoff ........ YES
    RDII ................... NO
    Snowmelt ............... NO
    Groundwater ............ NO
    Flow Routing ........... YES
    Ponding Allowed ........ NO
    Water Quality .......... NO
  Infiltration Method ...... HORTON
  Flow Routing Method ...... DYNWAVE
  Surcharge Method ......... EXTRAN
  Starting Date ............ 08/28/2015 08:00:00
  Ending Date .............. 08/28/2015 15:50:00
  Antecedent Dry Days ...... 8.0
  Report Time Step ......... 00:01:00
  Wet Time Step ............ 00:01:00
  Dry Time Step ............ 00:01:00
  Routing Time Step ........ 5.00 sec
  Variable Time Step ....... YES
  Maximum Trials ........... 8
  Number of Threads ........ 4
  Head Tolerance ........... 0.001500 m
  
  
  **************************        Volume         Depth
  Runoff Quantity Continuity     hectare-m            mm
  **************************     ---------       -------
  Total Precipitation ......         1.959         4.290
  Evaporation Loss .........         0.000         0.000
  Infiltration Loss ........         0.484         1.060
  Surface Runoff ...........         0.669         1.465
  Final Storage ............         0.806         1.766
  Continuity Error (%) .....        -0.017
  
  
  **************************        Volume        Volume
  Flow Routing Continuity        hectare-m      10^6 ltr
  **************************     ---------     ---------
  Dry Weather Inflow .......         0.616         6.165
  Wet Weather Inflow .......         0.669         6.687
  Groundwater Inflow .......         0.000         0.000
  RDII Inflow ..............         0.000         0.000
  External Inflow ..........         0.102         1.024
  External Outflow .........         1.565        15.651
  Flooding Loss ............         0.000         0.000
  Evaporation Loss .........         0.000         0.000
  Exfiltration Loss ........         0.000         0.000
  Initial Stored Volume ....         0.076         0.761
  Final Stored Volume ......         0.127         1.275
  Continuity Error (%) .....       -15.647
  
  
  *************************
  Highest Continuity Errors
  *************************
  Node JK-storage (-52.14%)
  Node HS02004842 (36.20%)
  Node YS02001884 (30.39%)
  Node YS02001774 (15.12%)
  Node YSB1171 (10.26%)
  
  
  ***************************
  Time-Step Critical Elements
  ***************************
  Link WS02006252WS02006251 (69.54%)
  Link 3 (21.48%)
  Link WS02006280WS02006229 (3.17%)
  Link WS02006238WS02006235 (2.02%)
  
  
  ********************************
  Highest Flow Instability Indexes
  ********************************
  Link WS02006113WS02006111 (48)
  Link WS02006111WS02006112 (23)
  Link YS02001754YS02001757 (3)
  Link YS02001751YS02001754 (3)
  Link YS02001762YS02001759 (3)
  
  
  *************************
  Routing Time Step Summary
  *************************
  Minimum Time Step           :     0.11 sec
  Average Time Step           :     0.95 sec
  Maximum Time Step           :     5.00 sec
  Percent in Steady State     :    -0.00
  Average Iterations per Step :     2.02
  Percent Not Converging      :     0.03
  
  
  ***************************
  Subcatchment Runoff Summary
  ***************************
  
  ------------------------------------------------------------------------------------------------------------------------------
                            Total      Total      Total      Total     Imperv       Perv      Total       Total     Peak  Runoff
                           Precip      Runon       Evap      Infil     Runoff     Runoff     Runoff      Runoff   Runoff   Coeff
  Subcatchment                 mm         mm         mm         mm         mm         mm         mm    10^6 ltr      LPS
  ------------------------------------------------------------------------------------------------------------------------------
  sub0                       4.29       0.00       0.00       0.30       2.73       0.00       2.73        0.00     0.90   0.635
  sub1                       4.29       0.00       0.00       0.47       2.57       0.00       2.57        0.02     4.48   0.598
  sub2                       4.29       0.00       0.00       1.59       1.80       0.00       1.80        0.02     3.91   0.419
  sub3                       4.29       0.00       0.00       1.59       1.77       0.00       1.77        0.04     7.91   0.412
  sub4                       4.29       0.00       0.00       0.47       2.44       0.00       2.44        0.05     8.75   0.568
  sub5                       4.29       0.00       0.00       0.30       2.68       0.00       2.68        0.03     7.96   0.625
  sub7                       4.29       0.00       0.00       0.39       2.65       0.00       2.65        0.01     2.87   0.618
  sub8                       4.29       0.00       0.00       0.39       2.64       0.00       2.64        0.02     5.03   0.616
  sub9                       4.29       0.00       0.00       0.39       2.64       0.00       2.64        0.01     3.72   0.615
  sub10                      4.29       0.00       0.00       0.34       2.66       0.00       2.66        0.03     7.98   0.620
  sub11                      4.29       0.00       0.00       0.34       2.67       0.00       2.67        0.03     9.48   0.623
  sub12                      4.29       0.00       0.00       0.56       2.54       0.00       2.54        0.02     8.21   0.593
  sub14                      4.29       0.00       0.00       0.39       2.64       0.00       2.64        0.03     7.26   0.615
  sub15                      4.29       0.00       0.00       1.29       2.03       0.00       2.03        0.03     9.82   0.472
  sub16                      4.29       0.00       0.00       1.42       1.96       0.00       1.96        0.02     7.17   0.456
  sub17                      4.29       0.00       0.00       1.37       1.98       0.00       1.98        0.02     5.77   0.462
  sub22                      4.29       0.00       0.00       1.84       1.66       0.00       1.66        0.10    32.51   0.386
  sub23                      4.29       0.00       0.00       1.59       1.83       0.00       1.83        0.09    27.76   0.427
  sub60                      4.29       0.00       0.00       0.51       1.60       0.00       1.60        0.48    40.77   0.372
  sub61                      4.29       0.00       0.00       0.73       1.76       0.00       1.76        0.54    52.21   0.410
  sub62                      4.29       0.00       0.00       0.34       1.87       0.00       1.87        0.58    53.04   0.436
  sub63                      4.29       0.00       0.00       1.24       1.58       0.00       1.58        0.48    49.15   0.369
  sub64                      4.29       0.00       0.00       0.64       1.52       0.00       1.52        0.46    38.65   0.355
  sub65                      4.29       0.00       0.00       0.56       1.54       0.00       1.54        0.47    39.15   0.359
  sub66                      4.29       0.00       0.00       1.24       1.34       0.00       1.34        0.41    35.67   0.313
  sub67                      4.29       0.00       0.00       0.34       2.11       0.00       2.11        0.65    69.44   0.492
  sub68                      4.29       0.00       0.00       0.60       1.88       0.00       1.88        0.58    58.04   0.439
  sub69                      4.29       0.00       0.00       0.64       2.09       0.00       2.09        0.49    59.02   0.487
  sub70                      4.29       2.13       0.00       2.18       2.41       0.00       2.41        0.55    43.29   0.375
  sub71                      4.29       0.00       0.00       0.34       1.77       0.00       1.77        0.42    36.75   0.413
  sub72                      4.29       0.00       0.00       0.30       1.18       0.00       1.18        0.24    16.67   0.274
  sub73                      4.29       2.35       0.00       2.26       2.35       0.00       2.35        0.55    36.86   0.354
  sub74                      4.29       0.00       0.00       3.22       0.64       0.00       0.64        0.25    33.23   0.148
  
  
  ******************
  Node Depth Summary
  ******************
  
  ---------------------------------------------------------------------------------
                                 Average  Maximum  Maximum  Time of Max    Reported
                                   Depth    Depth      HGL   Occurrence   Max Depth
  Node                 Type       Meters   Meters   Meters  days hr:min      Meters
  ---------------------------------------------------------------------------------
  WS02001211           JUNCTION     0.68     0.78     5.61     0  04:38        0.78
  WS02001212           JUNCTION     0.40     0.48     5.54     0  04:38        0.48
  WS02001213           JUNCTION     0.62     0.72     5.48     0  04:37        0.72
  WS02003069           JUNCTION     0.43     0.53     5.11     0  02:58        0.53
  WS02003072           JUNCTION     0.50     0.59     4.96     0  02:59        0.59
  WS02003073           JUNCTION     0.30     0.36     4.42     0  02:59        0.36
  WS02003060           JUNCTION     0.38     0.47     5.40     0  02:57        0.47
  WS02003066           JUNCTION     0.22     0.28     5.83     0  03:00        0.28
  WS02003059           JUNCTION     0.68     0.76     5.45     0  04:37        0.76
  WS02003067           JUNCTION     0.55     0.67     5.99     0  03:00        0.67
  WS02004401           JUNCTION     0.64     0.79     6.79     0  02:56        0.79
  WS02004402           JUNCTION     0.67     0.82     6.78     0  02:57        0.82
  WS02004403           JUNCTION     0.69     0.83     6.76     0  02:56        0.83
  WS02004404           JUNCTION     0.77     0.91     6.76     0  02:56        0.91
  WS02004406           JUNCTION     0.78     0.91     6.74     0  02:57        0.91
  WS02004409           JUNCTION     0.46     0.60     6.37     0  02:59        0.60
  WS02004410           JUNCTION     0.48     0.62     6.34     0  02:59        0.62
  WS02004411           JUNCTION     0.49     0.63     6.31     0  03:00        0.63
  WS02004412           JUNCTION     0.51     0.65     6.29     0  03:00        0.65
  WS02004413           JUNCTION     0.67     0.81     6.28     0  03:00        0.81
  WS02004405           JUNCTION     0.76     0.90     6.75     0  02:57        0.90
  WS02006109           JUNCTION     0.71     0.89     7.50     0  02:52        0.89
  WS02006110           JUNCTION     0.71     0.86     7.45     0  02:53        0.86
  WS02006111           JUNCTION     0.20     0.27     6.97     0  02:53        0.26
  WS02006112           JUNCTION     0.80     0.97     6.85     0  02:56        0.97
  WS02006113           JUNCTION     0.31     0.42     7.31     0  02:53        0.42
  WS02006115           JUNCTION     0.53     0.68     6.82     0  02:56        0.68
  WS02006116           JUNCTION     0.61     0.76     6.80     0  02:56        0.76
  WS02006230           JUNCTION     0.67     0.91     7.66     0  02:52        0.91
  WS02006231           JUNCTION     0.44     0.61     7.74     0  02:52        0.61
  WS02006232           JUNCTION     0.58     0.76     7.79     0  02:52        0.75
  WS02006234           JUNCTION     0.50     0.70     7.86     0  02:52        0.70
  WS02006235           JUNCTION     0.53     0.74     7.90     0  02:52        0.74
  WS02006238           JUNCTION     0.56     0.77     7.91     0  02:52        0.77
  WS02006240           JUNCTION     0.45     0.70     7.99     0  02:51        0.70
  WS02006242           JUNCTION     0.51     0.77     8.04     0  03:28        0.77
  WS02006243           JUNCTION     0.39     0.66     8.08     0  03:28        0.66
  WS02006245           JUNCTION     0.37     0.63     8.12     0  03:29        0.63
  WS02006247           JUNCTION     0.39     0.64     8.14     0  03:29        0.64
  WS02006248           JUNCTION     0.34     0.58     8.17     0  03:29        0.58
  WS02006249           JUNCTION     0.38     0.60     8.20     0  03:29        0.60
  WS02006239           JUNCTION     0.51     0.74     7.95     0  02:51        0.74
  WS02006251           JUNCTION     0.37     0.62     8.29     0  03:29        0.62
  WS02006252           JUNCTION     0.33     0.59     8.83     0  03:20        0.58
  WS02006253           JUNCTION     0.39     0.65     8.29     0  03:29        0.65
  WS02006256           JUNCTION     0.97     1.19     8.12     0  02:39        1.18
  WS02004138           JUNCTION     0.16     0.19     7.44     0  01:20        0.19
  WS02004407           JUNCTION     0.21     0.27     6.58     0  02:57        0.27
  WS02006228           JUNCTION     0.70     0.90     7.56     0  02:52        0.90
  WS02006229           JUNCTION     0.67     0.89     7.59     0  02:52        0.89
  WS02006280           JUNCTION     0.05     0.11     8.39     0  02:22        0.11
  WS02006284           JUNCTION     0.34     0.44     8.84     0  02:22        0.44
  WS02006287           JUNCTION     0.07     0.17     9.12     0  02:22        0.17
  WSF200               JUNCTION     0.20     0.27     5.51     0  03:01        0.27
  HS02004901           JUNCTION     0.10     0.19    10.01     0  02:20        0.19
  HS02004881           JUNCTION     0.00     0.02     9.05     0  02:21        0.02
  HS02004876           JUNCTION     0.03     0.09     9.12     0  02:21        0.09
  HS02004870           JUNCTION     0.01     0.03     9.32     0  02:21        0.03
  HS02004862           JUNCTION     0.01     0.03     9.42     0  02:23        0.03
  HS02004856           JUNCTION     0.07     0.09     9.52     0  02:22        0.09
  HS02004852           JUNCTION     0.00     0.02     9.53     0  02:23        0.02
  HS02004848           JUNCTION     0.00     0.02     9.62     0  02:20        0.02
  HS02004842           JUNCTION     0.32     0.35     9.62     0  02:19        0.35
  HS02004837           JUNCTION     0.02     0.04     9.62     0  02:19        0.04
  HS02004830           JUNCTION     0.03     0.05     9.52     0  02:20        0.05
  HS02004824           JUNCTION     0.02     0.03     9.43     0  02:23        0.03
  HS02004817           JUNCTION     0.41     0.49     9.34     0  02:22        0.49
  HS02004807           JUNCTION     0.10     0.17     9.34     0  02:22        0.17
  HS02004802           JUNCTION     0.14     0.20     9.33     0  02:22        0.20
  HS02004799           JUNCTION     0.09     0.20     9.41     0  02:20        0.20
  HS02004792           JUNCTION     0.02     0.07     9.59     0  02:20        0.07
  HS02004788           JUNCTION     0.01     0.05     9.95     0  02:21        0.05
  HS02004785           JUNCTION     0.03     0.10    10.00     0  02:21        0.10
  HS02004777           JUNCTION     0.12     0.21    10.01     0  02:21        0.21
  HS02004770           JUNCTION     0.09     0.18    10.01     0  02:21        0.18
  HS02004480           JUNCTION     0.05     0.15     9.39     0  02:21        0.15
  HS02004479           JUNCTION     0.09     0.19     9.40     0  02:21        0.19
  HS02004478           JUNCTION     0.04     0.10     9.32     0  02:22        0.10
  YS02001745           JUNCTION     0.06     0.09     7.60     0  03:01        0.09
  YS02001748           JUNCTION     0.07     0.15     7.22     0  03:18        0.14
  YS02001751           JUNCTION     0.20     0.36     7.24     0  03:23        0.36
  YS02001754           JUNCTION     0.45     0.66     7.26     0  03:24        0.65
  YS02001762           JUNCTION     0.65     0.83     7.23     0  03:20        0.83
  YS02001765           JUNCTION     0.60     0.78     7.23     0  03:20        0.78
  YS02001767           JUNCTION     0.56     0.74     7.23     0  03:21        0.73
  YS02001770           JUNCTION     0.56     0.72     7.22     0  03:19        0.72
  YS02001774           JUNCTION     0.63     0.80     7.22     0  03:19        0.80
  YS02001779           JUNCTION     0.38     0.54     7.22     0  03:19        0.53
  YS02001882           JUNCTION     0.23     0.34     7.05     0  02:54        0.34
  YS02001884           JUNCTION     0.32     0.44     7.05     0  02:55        0.44
  YS02001759           JUNCTION     0.68     0.86     7.23     0  03:16        0.86
  YS02001887           JUNCTION     0.40     0.51     7.05     0  02:55        0.51
  YS02001890           JUNCTION     0.43     0.55     7.05     0  02:55        0.55
  YS02001898           JUNCTION     0.20     0.30     7.04     0  02:56        0.30
  YS02001901           JUNCTION     0.32     0.43     7.04     0  02:56        0.43
  YS02001904           JUNCTION     0.30     0.40     7.03     0  02:56        0.40
  YS02001907           JUNCTION     0.62     0.75     7.04     0  02:57        0.75
  YS02001910           JUNCTION     0.41     0.53     7.04     0  02:57        0.53
  YS02001915           JUNCTION     0.22     0.32     7.03     0  02:56        0.32
  YS02001918           JUNCTION     0.06     0.07     7.14     0  03:04        0.07
  YS02001619           JUNCTION     0.17     0.29     7.22     0  03:20        0.29
  YS02001629           JUNCTION     0.51     0.67     7.22     0  03:19        0.67
  YS02001641           JUNCTION     0.61     0.78     7.22     0  03:18        0.78
  YS02001644           JUNCTION     0.62     0.79     7.22     0  03:18        0.79
  YS02001652           JUNCTION     0.46     0.64     7.23     0  03:19        0.63
  YS02001655           JUNCTION     0.23     0.37     7.22     0  03:19        0.37
  YS02001920           JUNCTION     0.15     0.17     7.18     0  03:03        0.17
  YS02001923           JUNCTION     0.05     0.06     7.32     0  03:02        0.06
  YS02001926           JUNCTION     0.11     0.14     7.58     0  03:02        0.14
  YS02001929           JUNCTION     0.05     0.06     7.76     0  03:01        0.06
  YS02001658           JUNCTION     0.06     0.10     7.24     0  02:47        0.10
  YS02001661           JUNCTION     0.13     0.17     7.57     0  02:47        0.17
  YS02001664           JUNCTION     0.05     0.09     8.01     0  02:47        0.09
  YS02001622           JUNCTION     0.19     0.32     7.22     0  03:19        0.32
  YS02001633           JUNCTION     0.60     0.77     7.22     0  03:19        0.76
  YS02001649           JUNCTION     0.65     0.83     7.22     0  03:16        0.83
  YS02001757           JUNCTION     0.78     0.97     7.23     0  03:19        0.97
  YS02001895           JUNCTION     0.20     0.30     7.05     0  02:55        0.30
  YS02001625           JUNCTION     0.46     0.62     7.22     0  03:19        0.62
  YS02163301           JUNCTION     0.54     0.70     7.22     0  03:18        0.70
  YS02163601           JUNCTION     0.65     0.83     7.22     0  03:18        0.82
  YS02164001           JUNCTION     0.59     0.76     7.22     0  03:17        0.76
  YS02001647           JUNCTION     0.45     0.61     7.22     0  03:17        0.61
  YSB1154              JUNCTION     0.23     0.34     9.40     0  02:21        0.34
  YSB6556              JUNCTION     0.12     0.23     9.40     0  02:21        0.23
  YSB1174              JUNCTION     0.18     0.29     9.40     0  02:21        0.29
  YSB1171              JUNCTION     0.38     0.49     9.40     0  02:21        0.49
  YS02006553           JUNCTION     0.63     0.75     7.03     0  02:57        0.75
  YS02006561           JUNCTION     0.11     0.17     6.83     0  02:56        0.17
  YS02006556           JUNCTION     0.60     0.72     7.03     0  02:56        0.72
  YS02006558           JUNCTION     0.65     0.77     7.03     0  02:56        0.77
  YS02001783           JUNCTION     0.18     0.29     6.43     0  02:57        0.29
  YS02001784           JUNCTION     0.22     0.32     6.39     0  02:57        0.32
  YS02001786           JUNCTION     0.19     0.27     6.30     0  02:57        0.27
  YS02001788           JUNCTION     0.13     0.20     6.18     0  02:58        0.20
  YS02001790           JUNCTION     0.16     0.24     5.89     0  02:58        0.24
  YS02001791           JUNCTION     0.11     0.16     5.63     0  02:58        0.16
  YS02001793           JUNCTION     0.07     0.11     4.94     0  02:58        0.11
  WS02004139           JUNCTION     0.62     0.72     5.63     0  04:39        0.72
  WSC                  OUTFALL      0.30     0.36     1.03     0  03:00        0.36
  3                    OUTFALL      0.05     0.19     6.19     0  02:39        0.17
  4                    OUTFALL      0.01     0.10     7.10     0  03:29        0.10
  5                    OUTFALL      0.00     0.00     5.00     0  00:00        0.00
  JK-storage           STORAGE      0.08     3.00     3.80     0  00:00        2.70
  CC-storage           STORAGE      0.01     0.11     7.11     0  03:16        0.11
  XR-storage           STORAGE      1.04     5.10     3.10     0  00:21        5.10
  
  
  *******************
  Node Inflow Summary
  *******************
  
  -------------------------------------------------------------------------------------------------
                                  Maximum  Maximum                  Lateral       Total        Flow
                                  Lateral    Total  Time of Max      Inflow      Inflow     Balance
                                   Inflow   Inflow   Occurrence      Volume      Volume       Error
  Node                 Type           LPS      LPS  days hr:min    10^6 ltr    10^6 ltr     Percent
  -------------------------------------------------------------------------------------------------
  WS02001211           JUNCTION      7.35   387.75     0  04:40       0.207        7.67       0.479
  WS02001212           JUNCTION      0.00   387.87     0  04:40           0        7.63       0.268
  WS02001213           JUNCTION      0.00   388.07     0  04:40           0        7.61       0.284
  WS02003069           JUNCTION      0.32   794.02     0  02:58     0.00902        14.1       0.189
  WS02003072           JUNCTION      0.00   793.90     0  02:58           0          14       0.238
  WS02003073           JUNCTION      1.82   795.67     0  02:59      0.0514        14.1       0.266
  WS02003060           JUNCTION     16.53   793.63     0  02:57       0.466        14.1       0.182
  WS02003066           JUNCTION      0.00   451.64     0  03:00           0        6.08       0.058
  WS02003059           JUNCTION      0.00   388.40     0  04:40           0        7.59       0.494
  WS02003067           JUNCTION      0.00   451.61     0  03:00           0        6.09       0.128
  WS02004401           JUNCTION      0.00   456.93     0  02:54           0        6.28       0.287
  WS02004402           JUNCTION      0.00   455.73     0  02:55           0        6.26       0.275
  WS02004403           JUNCTION      0.00   455.49     0  02:56           0        6.25       0.255
  WS02004404           JUNCTION      0.16   455.45     0  02:56     0.00457        6.24       0.197
  WS02004406           JUNCTION      0.00   455.45     0  02:57           0        6.21       0.482
  WS02004409           JUNCTION      0.00   455.30     0  02:57           0        6.17       0.197
  WS02004410           JUNCTION      0.00   453.82     0  02:58           0        6.16       0.230
  WS02004411           JUNCTION      0.00   452.77     0  02:59           0        6.14       0.243
  WS02004412           JUNCTION      0.00   452.15     0  02:59           0        6.13       0.271
  WS02004413           JUNCTION      0.00   451.75     0  03:00           0        6.11       0.415
  WS02004405           JUNCTION      0.04   455.45     0  02:56     0.00107        6.22       0.295
  WS02006109           JUNCTION      1.23   461.17     0  02:52      0.0347        6.37       0.290
  WS02006110           JUNCTION      0.00   461.17     0  02:52           0        6.35       0.260
  WS02006111           JUNCTION      0.00   474.52     0  02:53           0        6.32       0.051
  WS02006112           JUNCTION      5.77   466.20     0  02:53       0.017        6.34       0.401
  WS02006113           JUNCTION      0.00   461.25     0  02:53           0        6.33       0.113
  WS02006115           JUNCTION      0.00   461.79     0  02:53           0        6.31       0.248
  WS02006116           JUNCTION      0.00   458.98     0  02:54           0         6.3       0.241
  WS02006230           JUNCTION     10.28   393.79     0  03:35        0.29        5.71       0.163
  WS02006231           JUNCTION      0.00   383.40     0  03:35           0        5.43       0.197
  WS02006232           JUNCTION      0.00   383.38     0  03:35           0        5.44       0.242
  WS02006234           JUNCTION      0.00   384.58     0  03:24           0        5.45       0.088
  WS02006235           JUNCTION      0.00   385.39     0  03:22           0        5.49       0.157
  WS02006238           JUNCTION      0.00   313.05     0  04:11           0        3.73       0.143
  WS02006240           JUNCTION      0.00   317.36     0  03:21           0        3.71       0.179
  WS02006242           JUNCTION      0.00   327.48     0  03:21           0        3.71       0.224
  WS02006243           JUNCTION      0.00   336.86     0  03:21           0        3.69      -0.174
  WS02006245           JUNCTION      0.00   344.04     0  03:21           0         3.7       0.190
  WS02006247           JUNCTION      0.00   350.44     0  03:21           0         3.7       0.091
  WS02006248           JUNCTION      0.00   356.16     0  03:20           0         3.7      -0.003
  WS02006249           JUNCTION      0.00   404.96     0  03:29           0        3.95       0.191
  WS02006239           JUNCTION      0.00   313.01     0  04:10           0        3.72       0.197
  WS02006251           JUNCTION      0.08   408.52     0  02:50     0.00217           4       0.104
  WS02006252           JUNCTION      0.00   400.00     0  03:20           0        3.85       0.006
  WS02006253           JUNCTION      0.90    39.28     0  04:51     0.00221       0.148       0.944
  WS02006256           JUNCTION      0.00   577.76     0  02:39           0        3.17       0.090
  WS02004138           JUNCTION      0.00   380.00     0  01:20           0         7.5       0.061
  WS02004407           JUNCTION      0.00   455.35     0  02:57           0        6.18       0.091
  WS02006228           JUNCTION      0.00   459.93     0  02:52           0        6.34       0.196
  WS02006229           JUNCTION      0.00   459.87     0  02:52           0        6.35       0.166
  WS02006280           JUNCTION      0.00   130.26     0  02:22           0       0.655       0.011
  WS02006284           JUNCTION      0.10   130.26     0  02:22      0.0027       0.656       0.171
  WS02006287           JUNCTION      0.00   130.17     0  02:22           0       0.654       0.106
  WSF200               JUNCTION      0.00   451.63     0  03:00           0        6.08       0.051
  HS02004901           JUNCTION      7.17     7.17     0  02:12      0.0205      0.0206       9.312
  HS02004881           JUNCTION      2.87    23.53     0  02:21     0.00892      0.0925       0.201
  HS02004876           JUNCTION      4.48    20.94     0  02:21       0.017      0.0841       0.619
  HS02004870           JUNCTION      5.03    16.59     0  02:21      0.0169      0.0672       0.157
  HS02004862           JUNCTION      4.11    11.95     0  02:21      0.0224      0.0505       0.331
  HS02004856           JUNCTION      3.72     7.89     0  02:20      0.0127      0.0295       5.117
  HS02004852           JUNCTION      0.00     4.45     0  02:21           0      0.0169       0.283
  HS02004848           JUNCTION      7.91     7.91     0  02:23      0.0398      0.0398       0.105
  HS02004842           JUNCTION      0.00     4.47     0  00:03           0      0.0359      56.741
  HS02004837           JUNCTION     14.33    17.64     0  02:18       0.208       0.231       0.353
  HS02004830           JUNCTION      0.15    17.78     0  02:19     0.00423       0.222       0.559
  HS02004824           JUNCTION      8.80    26.47     0  02:23      0.0523       0.273       0.198
  HS02004817           JUNCTION      0.60    27.07     0  02:23      0.0169       0.289       6.116
  HS02004807           JUNCTION      9.48    35.62     0  02:22       0.031       0.303       1.411
  HS02004802           JUNCTION      0.00    35.67     0  02:24           0       0.299       1.372
  HS02004799           JUNCTION      7.26    80.54     0  02:19      0.0251       0.321       0.702
  HS02004792           JUNCTION     32.79    73.56     0  02:19       0.113       0.296       0.140
  HS02004788           JUNCTION     11.49    42.89     0  02:20      0.0819       0.185       0.212
  HS02004785           JUNCTION      0.15    31.94     0  02:19     0.00423       0.105       0.456
  HS02004777           JUNCTION      0.03    32.37     0  02:18    0.000846       0.105       5.153
  HS02004770           JUNCTION     27.76    33.65     0  02:16      0.0874       0.106       3.002
  HS02004480           JUNCTION      0.00    94.82     0  02:21           0       0.371       0.186
  HS02004479           JUNCTION      0.00    14.61     0  02:22           0      0.0622       1.183
  HS02004478           JUNCTION      0.00   130.17     0  02:22           0       0.655       0.099
  YS02001745           JUNCTION     40.77    40.77     0  03:01       0.484       0.484       0.074
  YS02001748           JUNCTION      0.04    40.81     0  03:01     0.00127       0.485       0.037
  YS02001751           JUNCTION      0.01   108.26     0  03:36     0.00031       0.635       0.173
  YS02001754           JUNCTION      0.26   229.07     0  03:36     0.00733        1.14       1.058
  YS02001762           JUNCTION      0.00    67.69     0  03:35           0       0.633       2.221
  YS02001765           JUNCTION      0.00    96.57     0  03:34           0       0.623       2.409
  YS02001767           JUNCTION      0.54    67.27     0  03:34      0.0151       0.628       3.078
  YS02001770           JUNCTION     53.19    60.87     0  02:32       0.579       0.602       2.770
  YS02001774           JUNCTION      0.00    27.06     0  02:29           0      0.0971      17.812
  YS02001779           JUNCTION      0.01    13.66     0  03:33    0.000141      0.0592       9.356
  YS02001882           JUNCTION      0.00     2.59     0  02:12           0     0.00355      69.240
  YS02001884           JUNCTION      0.00     7.87     0  02:08           0      0.0144      43.648
  YS02001759           JUNCTION     52.25   140.38     0  03:32       0.543        1.15       1.370
  YS02001887           JUNCTION     69.89    69.89     0  02:45       0.663        0.67       0.999
  YS02001890           JUNCTION      0.00    69.49     0  02:47           0       0.651       1.133
  YS02001898           JUNCTION      0.00    69.19     0  02:50           0        0.64       0.284
  YS02001901           JUNCTION      0.00    69.19     0  02:50           0        0.64       0.787
  YS02001904           JUNCTION      0.00    68.93     0  02:51           0        0.64       0.734
  YS02001907           JUNCTION      0.00   124.72     0  02:58           0        1.36       1.582
  YS02001910           JUNCTION      0.00    56.45     0  03:00           0       0.733       1.315
  YS02001915           JUNCTION     36.77    56.19     0  03:01       0.418       0.736       0.537
  YS02001918           JUNCTION      0.00    19.56     0  03:03           0       0.319       0.265
  YS02001619           JUNCTION     35.67    35.67     0  03:00       0.411       0.411       0.135
  YS02001629           JUNCTION      0.00    37.32     0  02:47           0       0.394       1.417
  YS02001641           JUNCTION      0.00    84.80     0  03:26           0       0.837       1.505
  YS02001644           JUNCTION     38.69   114.31     0  03:04       0.464        1.28       1.192
  YS02001652           JUNCTION      0.00    71.03     0  03:33           0       0.549       1.694
  YS02001655           JUNCTION      0.15    49.30     0  02:47     0.00434       0.491       0.637
  YS02001920           JUNCTION      2.87    19.57     0  03:02      0.0809       0.321       0.540
  YS02001923           JUNCTION      0.04    16.71     0  03:02     0.00106        0.24       0.095
  YS02001926           JUNCTION      0.05    16.71     0  03:01     0.00147       0.241       0.690
  YS02001929           JUNCTION     16.67    16.67     0  03:01       0.239       0.239       0.089
  YS02001658           JUNCTION      0.00    49.15     0  02:47           0       0.478       0.041
  YS02001661           JUNCTION      0.00    49.15     0  02:47           0       0.479       0.154
  YS02001664           JUNCTION     49.15    49.15     0  02:47       0.479       0.479       0.030
  YS02001622           JUNCTION      0.00    38.08     0  02:58           0       0.411       0.618
  YS02001633           JUNCTION     39.35    76.66     0  03:02       0.479        0.86       2.137
  YS02001649           JUNCTION      0.00   201.39     0  03:27           0        1.77       1.320
  YS02001757           JUNCTION      0.00   467.18     0  03:33           0         3.7       1.840
  YS02001895           JUNCTION      0.00    69.30     0  02:49           0       0.644       0.499
  YS02001625           JUNCTION      0.00    39.04     0  02:46           0       0.408       3.733
  YS02163301           JUNCTION      0.00    43.04     0  03:32           0       0.395       3.139
  YS02163601           JUNCTION      0.11    80.87     0  03:26      0.0031       0.842       2.338
  YS02164001           JUNCTION      0.00    83.70     0  03:31           0       0.832       1.406
  YS02001647           JUNCTION      0.00   121.24     0  03:25           0        1.26       0.978
  YSB1154              JUNCTION      7.96     7.96     0  02:17      0.0303      0.0318       4.761
  YSB6556              JUNCTION      0.00     7.83     0  02:20           0      0.0328       3.939
  YSB1174              JUNCTION      8.21     8.21     0  02:12      0.0222      0.0232       5.853
  YSB1171              JUNCTION      0.00    14.61     0  02:19           0      0.0616      11.429
  YS02006553           JUNCTION      0.00   124.86     0  03:02           0        1.35       1.030
  YS02006561           JUNCTION      0.00   183.07     0  02:56           0        1.91       0.028
  YS02006556           JUNCTION      0.00   125.02     0  03:02           0        1.35       0.738
  YS02006558           JUNCTION     58.92   183.08     0  02:56       0.604        1.93       0.223
  YS02001783           JUNCTION      0.00   183.06     0  02:56           0        1.91       0.065
  YS02001784           JUNCTION      1.06   184.12     0  02:57      0.0299        1.93       0.109
  YS02001786           JUNCTION      0.06   184.16     0  02:57     0.00159        1.93       0.106
  YS02001788           JUNCTION      0.07   184.23     0  02:58       0.002        1.93       0.059
  YS02001790           JUNCTION      0.15   184.38     0  02:58     0.00437        1.94       0.077
  YS02001791           JUNCTION      0.00   184.38     0  02:58           0        1.94       0.037
  YS02001793           JUNCTION      0.00   184.38     0  02:58           0        1.94       0.020
  WS02004139           JUNCTION      0.32   380.36     0  01:20     0.00905         7.5       0.501
  WSC                  OUTFALL       0.00   795.62     0  03:00           0          14       0.000
  3                    OUTFALL       0.00   439.54     0  02:39           0        1.38       0.000
  4                    OUTFALL       0.00   101.92     0  03:29           0       0.238       0.000
  5                    OUTFALL       0.00     0.00     0  00:00           0           0       0.000 ltr
  JK-storage           STORAGE       0.00   184.38     0  02:58           0        2.09     -34.270
  CC-storage           STORAGE       0.00   300.92     0  03:01           0        3.13     -18.757
  XR-storage           STORAGE     266.77   266.77     0  02:53        6.45        7.05      -6.001
  
  
  **********************
  Node Surcharge Summary
  **********************
  
  Surcharging occurs when water rises above the top of the highest conduit.
  ---------------------------------------------------------------------
                                               Max. Height   Min. Depth
                                   Hours       Above Crown    Below Rim
  Node                 Type      Surcharged         Meters       Meters
  ---------------------------------------------------------------------
  WS02006109           JUNCTION        1.03          0.065        1.755
  WS02006232           JUNCTION        1.14          0.055        1.425
  WS02006235           JUNCTION        0.65          0.030        1.260
  WS02006238           JUNCTION        0.84          0.049        1.381
  WS02006242           JUNCTION        0.67          0.038        0.782
  WS02006239           JUNCTION        0.15          0.004        1.286
  WS02006252           JUNCTION        1.47          0.185        0.915
  WS02006228           JUNCTION        0.98          0.075        2.125
  
  
  *********************
  Node Flooding Summary
  *********************
  
  No nodes were flooded.
  
  
  **********************
  Storage Volume Summary
  **********************
  
  --------------------------------------------------------------------------------------------------
                         Average     Avg  Evap Exfil       Maximum     Max    Time of Max    Maximum
                          Volume    Pcnt  Pcnt  Pcnt        Volume    Pcnt     Occurrence    Outflow
  Storage Unit           1000 m3    Full  Loss  Loss       1000 m3    Full    days hr:min        LPS
  --------------------------------------------------------------------------------------------------
  JK-storage               0.004       1     0     0         0.151      52       0  00:00     577.76
  CC-storage               0.038       0     0     0         0.297       2       0  03:16     400.00
  XR-storage               0.125      13     0     0         0.612      66       0  00:21     380.00
  
  
  ***********************
  Outfall Loading Summary
  ***********************
  
  -----------------------------------------------------------
                         Flow       Avg       Max       Total
                         Freq      Flow      Flow      Volume
  Outfall Node           Pcnt       LPS       LPS    10^6 ltr
  -----------------------------------------------------------
  WSC                   99.99    570.79    795.62      14.031
  3                     71.18    101.88    439.54       1.382
  4                     22.55     49.13    101.92       0.238
  5                      0.00      0.00      0.00       0.000
  -----------------------------------------------------------
  System                48.43    721.80   1063.24      15.651
  
  
  ********************
  Link Flow Summary
  ********************
  
  -----------------------------------------------------------------------------
                                 Maximum  Time of Max   Maximum    Max/    Max/
                                  |Flow|   Occurrence   |Veloc|    Full    Full
  Link                 Type          LPS  days hr:min     m/sec    Flow   Depth
  -----------------------------------------------------------------------------
  WS02003066WSF200     CONDUIT    451.63     0  03:00      2.67    0.08    0.21
  WS02006287WS02006284 CONDUIT    130.16     0  02:22      1.38    0.06    0.18
  WS02006284WS02006280 CONDUIT    130.26     0  02:22      1.63    0.05    0.16
  WS02006280WS02006229 CONDUIT    130.26     0  02:22      2.61    0.03    0.11
  WS02006229WS02006228 CONDUIT    459.93     0  02:52      0.91    1.52    1.00
  WS02006256WS02006235 CONDUIT    166.25     0  00:01      2.58    1.76    1.00
  WS02006253WS02006251 CONDUIT     42.01     0  04:51      0.41    0.13    0.90
  WS02006252WS02006251 CONDUIT    400.24     0  03:20      3.18    1.47    1.00
  WS02006251WS02006249 CONDUIT    404.96     0  03:29      1.18    1.17    0.87
  WS02006249WS02006248 CONDUIT    356.16     0  03:20      1.16    1.95    0.83
  WS02006248WS02006247 CONDUIT    350.44     0  03:21      1.12    0.76    0.87
  WS02006247WS02006245 CONDUIT    344.04     0  03:21      1.08    2.73    0.91
  WS02006245WS02006243 CONDUIT    336.86     0  03:21      1.09    1.00    0.92
  WS02006243WS02006242 CONDUIT    327.48     0  03:21      0.95    0.70    0.97
  WS02006242WS02006240 CONDUIT    317.36     0  03:21      0.87    1.26    0.99
  WS02006240WS02006239 CONDUIT    313.01     0  04:10      0.87    0.98    1.00
  WS02006239WS02006238 CONDUIT    313.05     0  04:11      0.84    1.00    1.00
  WS02006238WS02006235 CONDUIT    313.06     0  04:11      1.25    0.70    1.00
  WS02006235WS02006234 CONDUIT    384.58     0  03:24      1.03    4.06    0.99
  WS02006234WS02006232 CONDUIT    383.38     0  03:35      1.13    0.78    1.00
  WS02006232WS02006231 CONDUIT    383.40     0  03:35      1.04    0.80    0.93
  WS02006231WS02006230 CONDUIT    383.51     0  03:35      1.32    5.82    0.82
  WS02006230WS02006229 CONDUIT    393.99     0  03:35      1.02    8.77    1.00
  WS02006228WS02006109 CONDUIT    459.94     0  02:52      0.92    2.01    1.00
  WS02006116WS02004401 CONDUIT    456.93     0  02:54      0.73    0.63    0.77
  WS02006115WS02006116 CONDUIT    458.98     0  02:54      0.80    0.59    0.69
  WS02006113WS02006111 CONDUIT    474.52     0  02:53      2.33    0.57    0.43
  WS02006112WS02006115 CONDUIT    461.79     0  02:53      0.67    0.27    0.82
  WS02006111WS02006112 CONDUIT    464.18     0  02:53      1.32    0.22    0.66
  WS02006110WS02006113 CONDUIT    461.25     0  02:53      1.13    0.42    0.76
  WS02006109WS02006110 CONDUIT    461.17     0  02:52      0.93    0.89    0.97
  WS02004411WS02004412 CONDUIT    452.15     0  02:59      0.85    0.64    0.64
  WS02004401WS02004402 CONDUIT    455.73     0  02:55      0.77    0.55    0.80
  WS02004413WS02003067 CONDUIT    451.61     0  03:00      1.01    0.19    0.55
  WS02004412WS02004413 CONDUIT    451.75     0  03:00      0.74    0.30    0.73
  WS02004410WS02004411 CONDUIT    452.77     0  02:59      0.87    0.62    0.63
  WS02004409WS02004410 CONDUIT    453.82     0  02:58      0.91    0.59    0.61
  WS02004407WS02004409 CONDUIT    455.30     0  02:57      1.39    0.16    0.44
  WS02004406WS02004407 CONDUIT    455.35     0  02:57      0.94    0.20    0.59
  WS02004405WS02004406 CONDUIT    455.45     0  02:57      0.66    0.90    0.91
  WS02004404WS02004405 CONDUIT    455.41     0  02:56      0.84    4.46    0.91
  WS02004403WS02004404 CONDUIT    455.29     0  02:56      0.74    0.33    0.87
  WS02004402WS02004403 CONDUIT    455.49     0  02:56      0.75    0.65    0.82
  WS02004139WS02001211 CONDUIT    380.40     0  04:40      0.69    0.48    0.58
  WS02004138WS02004139 CONDUIT    380.04     0  01:20      2.94    0.08    0.43
  WS02003067WS02003066 CONDUIT    451.64     0  03:00      1.09    0.14    0.39
  WS02001213WS02003059 CONDUIT    388.40     0  04:40      0.68    0.64    0.73
  WS02001212WS02001213 CONDUIT    388.07     0  04:40      1.32    0.60    0.44
  WS02001211WS02001212 CONDUIT    387.87     0  04:40      0.78    0.30    0.63
  WS02003072WS02003073 CONDUIT    793.85     0  02:59      1.63    1.71    0.45
  WS02003069WS02003072 CONDUIT    793.90     0  02:58      1.54    0.38    0.47
  WS02003060WS02003069 CONDUIT    793.70     0  02:58      1.79    0.31    0.41
  WS02003059WS02003060 CONDUIT    388.80     0  04:40      0.95    0.25    0.61
  HS02004901HS02004770 CONDUIT      6.32     0  02:18      0.03    0.02    0.27
  HS02004876HS02004881 CONDUIT     20.95     0  02:21      0.40    0.22    0.07
  HS02004870HS02004876 CONDUIT     16.57     0  02:21      0.28    0.01    0.08
  HS02004842HS02004848 CONDUIT      3.70     0  02:32      0.02    0.00    0.26
  HS02004837HS02004842 CONDUIT      4.47     0  00:03      0.41    0.00    0.28
  HS02004830HS02004837 CONDUIT     17.63     0  02:19      0.39    0.02    0.06
  HS02004824HS02004830 CONDUIT     17.78     0  02:20      0.43    0.02    0.06
  HS02004817HS02004824 CONDUIT     26.47     0  02:23      0.17    0.01    0.37
  HS02004770HS02004777 CONDUIT     32.34     0  02:18      0.17    0.06    0.28
  HS02004799HS02004480 CONDUIT     80.38     0  02:20      0.46    0.10    0.25
  HS02004792HS02004799 CONDUIT     73.52     0  02:20      0.54    0.05    0.20
  HS02004788HS02004792 CONDUIT     42.85     0  02:21      0.70    0.03    0.09
  HS02004785HS02004788 CONDUIT     31.80     0  02:21      0.41    0.24    0.11
  HS02004777HS02004785 CONDUIT     31.79     0  02:19      0.20    0.04    0.23
  HS02004480HS02004478 CONDUIT     94.80     0  02:21      0.79    0.40    0.17
  HS02004479HS02004480 CONDUIT     14.74     0  02:23      0.15    0.01    0.25
  HS02004862HS02004870 CONDUIT     11.91     0  02:22      0.38    0.01    0.04
  HS02004848HS02004852 CONDUIT      4.45     0  02:21      0.25    0.01    0.03
  HS02004856HS02004862 CONDUIT      7.87     0  02:22      0.27    0.01    0.04
  HS02004852HS02004856 CONDUIT      4.41     0  02:23      0.08    0.01    0.08
  HS02004802HS02004478 CONDUIT     35.84     0  02:25      0.24    0.03    0.21
  HS02004478WS02006287 CONDUIT    130.17     0  02:22      1.07    0.04    0.14
  HS02004817HS02004807 CONDUIT     27.30     0  02:26      0.08    0.02    0.47
  HS02004807HS02004802 CONDUIT     35.67     0  02:24      0.20    0.07    0.26
  YS02001759YS02001757 CONDUIT    116.34     0  03:26      0.16    0.08    0.92
  YS02001762YS02001759 CONDUIT    100.51     0  03:32      0.17    0.12    0.84
  YS02001765YS02001762 CONDUIT     67.69     0  03:35      0.22    0.06    0.80
  YS02001770YS02001767 CONDUIT     61.40     0  03:26      0.32    0.24    0.73
  YS02001774YS02001770 CONDUIT     27.06     0  02:29      0.13    0.02    0.75
  YS02001779YS02001774 CONDUIT     16.53     0  03:32      0.07    0.01    0.66
  YS02001649YS02001757 CONDUIT    184.05     0  03:33      0.25    0.11    0.90
  YS02001767YS02001765 CONDUIT     96.57     0  03:34      0.26    0.12    0.75
  YS02006561YS02001783 CONDUIT    183.06     0  02:56      1.55    0.09    0.29
  YS02001783YS02001784 CONDUIT    183.06     0  02:57      1.03    0.25    0.38
  YS02001784YS02001785 CONDUIT    184.11     0  02:57      1.08    0.43    0.37
  YS02001788YS02001790 CONDUIT    184.23     0  02:58      1.63    0.14    0.28
  YS02001790YS02001791 CONDUIT    184.38     0  02:58      1.86    0.20    0.25
  YS02001791YS02001793 CONDUIT    184.38     0  02:58      3.64    0.08    0.17
  YS02001910YS02001907 CONDUIT     56.52     0  03:01      0.49    0.03    0.63
  YS02001786YS02001788 CONDUIT    184.16     0  02:58      1.48    0.35    0.30
  YS02001915YS02001910 CONDUIT     56.45     0  03:00      0.44    0.03    0.42
  YS02001918YS02001915 CONDUIT     19.55     0  03:04      0.44    0.01    0.19
  YS02001923YS02001920 CONDUIT     16.70     0  03:02      0.33    0.01    0.11
  YS02001926YS02001923 CONDUIT     16.67     0  03:02      0.39    0.02    0.10
  YS02001929YS02001926 CONDUIT     16.66     0  03:01      0.41    0.01    0.10
  YS02001920YS02001918 CONDUIT     19.56     0  03:03      0.36    0.02    0.12
  YS02001629YS02163301 CONDUIT     43.04     0  03:32      0.09    0.05    0.69
  YS02001619YS02001622 CONDUIT     38.08     0  02:58      0.57    0.06    0.30
  YS02001622YS02001625 CONDUIT     39.04     0  02:46      0.19    0.02    0.47
  YS02001625YS02001629 CONDUIT     37.32     0  02:47      0.19    0.02    0.45
  YS02163301YS02001633 CONDUIT     38.78     0  03:32      0.10    0.04    0.73
  YS02163601YS02164001 CONDUIT     83.70     0  03:31      0.13    0.07    0.79
  YS02164001YS02001641 CONDUIT     84.80     0  03:26      0.13    0.12    0.77
  YS02001641YS02001644 CONDUIT     78.37     0  03:30      0.13    0.25    0.79
  YS02001647YS02001649 CONDUIT    125.99     0  03:30      0.21    0.07    0.72
  YS02006553YS02006556 CONDUIT    125.02     0  03:02      0.21    0.11    0.72
  YS02006556YS02006558 CONDUIT    125.12     0  03:02      0.20    0.10    0.74
  YSB6556YSB1171       CONDUIT      7.93     0  02:23      0.04    0.01    0.51
  YS02001907YS02006553 CONDUIT    124.86     0  03:02      0.17    0.15    0.81
  YS02006558YS02006561 CONDUIT    183.07     0  02:56      2.00    0.40    0.36
  YS02001633YS02163601 CONDUIT     80.76     0  03:26      0.13    0.08    0.78
  YS02001644YS02001647 CONDUIT    121.24     0  03:25      0.21    0.07    0.70
  YS02001745YS02001748 CONDUIT     40.77     0  03:01      1.22    0.02    0.09
  YS02001748YS02001751 CONDUIT     55.45     0  03:28      0.96    0.03    0.24
  YS02001751YS02001754 CONDUIT    120.76     0  03:36      0.89    0.06    0.46
  YS02001754YS02001757 CONDUIT    180.52     0  03:35      0.33    0.07    0.79
  YS02001882YS02001884 CONDUIT      2.59     0  02:12      0.06    0.00    0.36
  YS02001884YS02001887 CONDUIT      7.87     0  02:08      0.06    0.01    0.45
  YS02001890YS02001895 CONDUIT     69.30     0  02:49      0.22    0.03    0.42
  YS02001895YS02001898 CONDUIT     69.19     0  02:50      0.44    0.12    0.29
  YS02001898YS02001901 CONDUIT     69.19     0  02:50      0.27    0.04    0.36
  YS02001901YS02001904 CONDUIT     68.93     0  02:51      0.22    0.11    0.42
  YS02001904YS02001907 CONDUIT     69.02     0  02:53      0.15    0.02    0.58
  YS02001887YS02001890 CONDUIT     69.49     0  02:47      0.18    0.12    0.51
  YS02001652YS02001649 CONDUIT     81.21     0  03:34      0.30    0.04    0.73
  YS02001655YS02001652 CONDUIT     66.46     0  03:25      0.95    0.03    0.48
  YS02001658YS02001655 CONDUIT     49.15     0  02:47      1.11    0.02    0.23
  YS02001661YS02001658 CONDUIT     49.15     0  02:47      1.24    0.02    0.10
  YS02001664YS02001661 CONDUIT     49.15     0  02:47      0.85    0.02    0.13
  YSB1154YSB6556       CONDUIT      7.83     0  02:20      0.19    0.01    0.40
  YSB1174YSB1171       CONDUIT      7.44     0  02:13      0.04    0.01    0.52
  YSB1171HS02004479    CONDUIT     14.61     0  02:22      0.54    0.01    0.40
  HS02004881HS02006253 CONDUIT     23.53     0  02:21      1.37    0.00    0.22
  YS02001793JiankangQianchi CONDUIT    184.38     0  02:58     11.23    0.01    0.54
  YS02001757CaochengTiaoxuchi CONDUIT    300.92     0  03:01      0.80    0.13    0.54
  WSF200WS02003060     CONDUIT    451.35     0  03:00      1.68    0.10    0.31
  1                    CONDUIT    795.62     0  03:00      3.13    0.28    0.36
  2                    CONDUIT    101.92     0  03:29      4.87    0.24    0.34
  3                    CONDUIT    439.54     0  02:39      9.51    0.70    0.62
  4                    CONDUIT      0.00     0  00:00      0.00    0.00    0.00
  CC-Pump-1            PUMP       200.00     0  03:20              1.00
  CC-Pump-2            PUMP       200.00     0  02:40              1.00
  JK-Pump-1            PUMP       300.00     0  00:00              1.00
  JK-Pump-2            PUMP       288.88     0  02:39              0.96
  XR-Pump-1            PUMP        95.00     0  00:30              1.00
  XR-Pump-2            PUMP        95.00     0  00:00              1.00
  XR-Pump-3            PUMP        95.00     0  00:20              1.00
  XR-Pump-4            PUMP        95.00     0  00:00              1.00
  
  
  ***************************
  Flow Classification Summary
  ***************************
  
  -------------------------------------------------------------------------------------
                      Adjusted    ---------- Fraction of Time in Flow Class ---------- 
                       /Actual         Up    Down  Sub   Sup   Up    Down  Norm  Inlet 
  Conduit               Length    Dry  Dry   Dry   Crit  Crit  Crit  Crit  Ltd   Ctrl  
  -------------------------------------------------------------------------------------
  WS02003066WSF200        1.00   0.06  0.01  0.00  0.00  0.93  0.00  0.00  0.77  0.00
  WS02006287WS02006284    1.00   0.04  0.02  0.00  0.74  0.20  0.00  0.00  0.80  0.00
  WS02006284WS02006280    1.00   0.05  0.00  0.00  0.00  0.00  0.00  0.95  0.00  0.00
  WS02006280WS02006229    1.00   0.05  0.00  0.00  0.00  0.00  0.00  0.95  0.00  0.00
  WS02006229WS02006228    1.00   0.00  0.00  0.00  0.99  0.00  0.00  0.01  0.00  0.00
  WS02006256WS02006235    1.00   0.00  0.00  0.00  1.00  0.00  0.00  0.00  0.00  0.00
  WS02006253WS02006251    1.00   0.03  0.01  0.00  0.95  0.00  0.00  0.00  0.00  0.00
  WS02006252WS02006251    1.00   0.10  0.00  0.00  0.00  0.00  0.90  0.00  0.00  0.00
  WS02006251WS02006249    1.00   0.00  0.00  0.00  1.00  0.00  0.00  0.00  0.32  0.00
  WS02006249WS02006248    1.00   0.00  0.02  0.00  0.87  0.00  0.11  0.00  0.00  0.00
  WS02006248WS02006247    1.00   0.03  0.00  0.00  0.97  0.00  0.00  0.00  0.21  0.00
  WS02006247WS02006245    1.00   0.02  0.00  0.00  0.98  0.00  0.00  0.00  0.00  0.00
  WS02006245WS02006243    1.00   0.01  0.00  0.00  0.93  0.00  0.00  0.05  0.01  0.00
  WS02006243WS02006242    1.00   0.01  0.00  0.00  0.99  0.00  0.00  0.00  0.30  0.00
  WS02006242WS02006240    1.00   0.00  0.00  0.00  1.00  0.00  0.00  0.00  0.00  0.00
  WS02006240WS02006239    1.00   0.00  0.00  0.00  0.95  0.00  0.00  0.05  0.01  0.00
  WS02006239WS02006238    1.00   0.00  0.00  0.00  1.00  0.00  0.00  0.00  0.00  0.00
  WS02006238WS02006235    1.00   0.00  0.00  0.00  1.00  0.00  0.00  0.00  0.00  0.00
  WS02006235WS02006234    1.00   0.00  0.00  0.00  0.95  0.00  0.05  0.00  0.00  0.00
  WS02006234WS02006232    1.00   0.00  0.00  0.00  1.00  0.00  0.00  0.00  0.05  0.00
  WS02006232WS02006231    1.00   0.00  0.00  0.00  0.99  0.00  0.01  0.00  0.00  0.00
  WS02006231WS02006230    1.00   0.00  0.00  0.00  0.42  0.00  0.58  0.00  0.00  0.00
  WS02006230WS02006229    1.00   0.00  0.00  0.00  0.98  0.00  0.00  0.02  0.01  0.00
  WS02006228WS02006109    1.00   0.00  0.00  0.00  1.00  0.00  0.00  0.00  0.00  0.00
  WS02006116WS02004401    1.00   0.03  0.00  0.00  0.97  0.00  0.00  0.00  0.00  0.00
  WS02006115WS02006116    1.00   0.03  0.00  0.00  0.97  0.00  0.00  0.01  0.00  0.00
  WS02006113WS02006111    1.00   0.02  0.00  0.00  0.00  0.98  0.00  0.00  0.14  0.00
  WS02006112WS02006115    1.00   0.02  0.00  0.00  0.97  0.00  0.00  0.00  0.00  0.00
  WS02006111WS02006112    1.00   0.02  0.00  0.00  0.97  0.00  0.00  0.00  0.98  0.00
  WS02006110WS02006113    1.00   0.01  0.01  0.00  0.98  0.00  0.00  0.00  0.00  0.00
  WS02006109WS02006110    1.00   0.00  0.01  0.00  0.98  0.00  0.01  0.00  0.00  0.00
  WS02004411WS02004412    1.00   0.04  0.00  0.00  0.96  0.00  0.00  0.00  0.00  0.00
  WS02004401WS02004402    1.00   0.03  0.00  0.00  0.97  0.00  0.00  0.00  0.00  0.00
  WS02004413WS02003067    1.00   0.04  0.02  0.00  0.00  0.00  0.94  0.00  0.00  0.00
  WS02004412WS02004413    1.00   0.04  0.00  0.00  0.96  0.00  0.00  0.00  0.03  0.00
  WS02004410WS02004411    1.00   0.04  0.00  0.00  0.96  0.00  0.00  0.00  0.03  0.00
  WS02004409WS02004410    1.00   0.04  0.00  0.00  0.96  0.00  0.00  0.00  0.03  0.00
  WS02004407WS02004409    1.00   0.04  0.00  0.00  0.96  0.00  0.00  0.00  0.89  0.00
  WS02004406WS02004407    1.00   0.00  0.04  0.00  0.96  0.00  0.00  0.00  0.00  0.00
  WS02004405WS02004406    1.00   0.00  0.00  0.00  1.00  0.00  0.00  0.00  0.00  0.00
  WS02004404WS02004405    1.00   0.00  0.00  0.00  1.00  0.00  0.00  0.00  0.00  0.00
  WS02004403WS02004404    1.00   0.00  0.03  0.00  0.97  0.00  0.00  0.00  0.01  0.00
  WS02004402WS02004403    1.00   0.03  0.00  0.00  0.97  0.00  0.00  0.00  0.00  0.00
  WS02004139WS02001211    1.00   0.00  0.00  0.00  0.99  0.00  0.01  0.00  0.00  0.00
  WS02004138WS02004139    1.00   0.00  0.00  0.00  0.99  0.01  0.00  0.00  1.00  0.00
  WS02003067WS02003066    1.00   0.06  0.00  0.00  0.94  0.00  0.00  0.00  0.00  0.00
  WS02001213WS02003059    1.00   0.00  0.00  0.00  0.99  0.00  0.00  0.00  0.00  0.00
  WS02001212WS02001213    1.00   0.01  0.00  0.00  0.81  0.00  0.19  0.00  0.00  0.00
  WS02001211WS02001212    1.00   0.00  0.00  0.00  1.00  0.00  0.00  0.00  0.00  0.00
  WS02003072WS02003073    1.00   0.00  0.00  0.00  0.00  0.00  0.00  1.00  0.00  0.00
  WS02003069WS02003072    1.00   0.00  0.00  0.00  0.99  0.01  0.00  0.00  0.24  0.00
  WS02003060WS02003069    1.00   0.00  0.00  0.00  0.98  0.02  0.00  0.00  0.13  0.00
  WS02003059WS02003060    1.00   0.00  0.00  0.00  1.00  0.00  0.00  0.00  0.01  0.00
  HS02004901HS02004770    1.00   0.05  0.00  0.00  0.95  0.00  0.00  0.00  0.03  0.00
  HS02004876HS02004881    1.00   0.03  0.00  0.00  0.97  0.00  0.00  0.00  0.00  0.00
  HS02004870HS02004876    1.00   0.01  0.00  0.00  0.99  0.00  0.00  0.00  0.95  0.00
  HS02004842HS02004848    1.00   0.00  0.05  0.00  0.95  0.00  0.00  0.00  0.71  0.00
  HS02004837HS02004842    1.00   0.00  0.00  0.00  0.99  0.01  0.00  0.00  0.11  0.00
  HS02004830HS02004837    1.00   0.00  0.00  0.00  1.00  0.00  0.00  0.00  0.99  0.00
  HS02004824HS02004830    1.00   0.00  0.00  0.00  1.00  0.00  0.00  0.00  0.00  0.00
  HS02004817HS02004824    1.00   0.00  0.00  0.00  1.00  0.00  0.00  0.00  1.00  0.00
  HS02004770HS02004777    1.00   0.00  0.05  0.00  0.95  0.00  0.00  0.00  0.08  0.00
  HS02004799HS02004480    1.00   0.00  0.03  0.00  0.94  0.00  0.03  0.00  0.00  0.00
  HS02004792HS02004799    1.00   0.00  0.00  0.00  0.98  0.02  0.00  0.00  0.98  0.00
  HS02004788HS02004792    1.00   0.00  0.00  0.00  0.99  0.01  0.00  0.00  0.98  0.00
  HS02004785HS02004788    1.00   0.00  0.00  0.00  1.00  0.00  0.00  0.00  0.00  0.00
  HS02004777HS02004785    1.00   0.00  0.00  0.00  1.00  0.00  0.00  0.00  0.22  0.00
  HS02004480HS02004478    1.00   0.05  0.00  0.00  0.76  0.00  0.00  0.18  0.00  0.00
  HS02004479HS02004480    1.00   0.03  0.00  0.00  0.97  0.00  0.00  0.00  0.16  0.00
  HS02004862HS02004870    1.00   0.00  0.00  0.00  1.00  0.00  0.00  0.00  0.05  0.00
  HS02004848HS02004852    1.00   0.05  0.00  0.00  0.95  0.00  0.00  0.00  0.70  0.00
  HS02004856HS02004862    1.00   0.00  0.08  0.00  0.92  0.00  0.00  0.00  0.73  0.00
  HS02004852HS02004856    1.00   0.05  0.01  0.00  0.94  0.00  0.00  0.00  0.82  0.00
  HS02004802HS02004478    1.00   0.05  0.01  0.00  0.94  0.00  0.00  0.00  0.00  0.00
  HS02004478WS02006287    1.00   0.06  0.00  0.00  0.94  0.00  0.00  0.00  0.81  0.00
  HS02004817HS02004807    1.00   0.00  0.05  0.00  0.95  0.00  0.00  0.00  0.00  0.00
  HS02004807HS02004802    1.00   0.05  0.00  0.00  0.95  0.00  0.00  0.00  0.01  0.00
  YS02001759YS02001757    1.00   0.00  0.00  0.00  1.00  0.00  0.00  0.00  0.17  0.00
  YS02001762YS02001759    1.00   0.00  0.00  0.00  1.00  0.00  0.00  0.00  0.05  0.00
  YS02001765YS02001762    1.00   0.00  0.00  0.00  1.00  0.00  0.00  0.00  0.23  0.00
  YS02001770YS02001767    1.00   0.00  0.00  0.00  1.00  0.00  0.00  0.00  0.00  0.00
  YS02001774YS02001770    1.00   0.00  0.06  0.00  0.94  0.00  0.00  0.00  0.07  0.00
  YS02001779YS02001774    1.00   0.00  0.00  0.00  1.00  0.00  0.00  0.00  0.28  0.00
  YS02001649YS02001757    1.00   0.00  0.00  0.00  1.00  0.00  0.00  0.00  0.19  0.00
  YS02001767YS02001765    1.00   0.00  0.00  0.00  1.00  0.00  0.00  0.00  0.01  0.00
  YS02006561YS02001783    1.00   0.08  0.00  0.00  0.00  0.92  0.00  0.00  0.72  0.00
  YS02001783YS02001784    1.00   0.00  0.08  0.00  0.92  0.00  0.00  0.00  0.08  0.00
  YS02001784YS02001785    1.00   0.00  0.00  0.00  1.00  0.00  0.00  0.00  0.26  0.00
  YS02001788YS02001790    1.00   0.00  0.00  0.00  0.08  0.92  0.00  0.00  0.99  0.00
  YS02001790YS02001791    1.00   0.00  0.00  0.00  0.02  0.98  0.00  0.00  0.39  0.00
  YS02001791YS02001793    1.00   0.00  0.00  0.00  0.00  1.00  0.00  0.00  0.00  0.00
  YS02001910YS02001907    1.00   0.00  0.00  0.00  0.97  0.00  0.00  0.03  0.13  0.00
  YS02001786YS02001788    1.00   0.00  0.00  0.00  0.08  0.92  0.00  0.00  0.00  0.00
  YS02001915YS02001910    1.00   0.00  0.00  0.00  0.99  0.01  0.00  0.00  0.25  0.00
  YS02001918YS02001915    1.00   0.00  0.01  0.00  0.98  0.02  0.00  0.00  0.80  0.00
  YS02001923YS02001920    1.00   0.00  0.00  0.00  1.00  0.00  0.00  0.00  1.00  0.00
  YS02001926YS02001923    1.00   0.00  0.04  0.00  0.00  0.00  0.96  0.00  0.00  0.00
  YS02001929YS02001926    1.00   0.00  0.05  0.00  0.95  0.00  0.00  0.00  0.86  0.00
  YS02001920YS02001918    1.00   0.00  0.01  0.00  0.99  0.00  0.00  0.00  0.00  0.00
  YS02001629YS02163301    1.00   0.07  0.00  0.00  0.93  0.00  0.00  0.00  0.00  0.00
  YS02001619YS02001622    1.00   0.05  0.00  0.00  0.95  0.00  0.00  0.00  0.00  0.00
  YS02001622YS02001625    1.00   0.05  0.00  0.00  0.95  0.00  0.00  0.00  0.14  0.00
  YS02001625YS02001629    1.00   0.05  0.03  0.00  0.91  0.00  0.01  0.00  0.00  0.00
  YS02163301YS02001633    1.00   0.00  0.07  0.00  0.93  0.00  0.00  0.00  0.00  0.00
  YS02163601YS02164001    1.00   0.00  0.04  0.00  0.96  0.00  0.00  0.00  0.00  0.00
  YS02164001YS02001641    1.00   0.01  0.03  0.00  0.96  0.00  0.00  0.00  0.07  0.00
  YS02001641YS02001644    1.00   0.00  0.01  0.00  0.99  0.00  0.00  0.00  0.00  0.00
  YS02001647YS02001649    1.00   0.00  0.08  0.00  0.92  0.00  0.00  0.00  0.01  0.00
  YS02006553YS02006556    1.00   0.02  0.00  0.00  0.98  0.00  0.00  0.00  0.03  0.00
  YS02006556YS02006558    1.00   0.00  0.00  0.00  1.00  0.00  0.00  0.00  0.00  0.00
  YSB6556YSB1171          1.00   0.03  0.02  0.00  0.95  0.00  0.00  0.00  0.00  0.00
  YS02001907YS02006553    1.00   0.00  0.02  0.00  0.97  0.00  0.00  0.00  0.00  0.00
  YS02006558YS02006561    1.00   0.08  0.00  0.00  0.00  0.92  0.00  0.00  0.71  0.00
  YS02001633YS02163601    1.00   0.00  0.01  0.00  0.99  0.00  0.00  0.00  0.20  0.00
  YS02001644YS02001647    1.00   0.00  0.08  0.00  0.92  0.00  0.00  0.00  0.00  0.00
  YS02001745YS02001748    1.00   0.00  0.00  0.00  0.00  0.00  0.00  1.00  0.00  0.00
  YS02001748YS02001751    1.00   0.00  0.00  0.00  0.98  0.02  0.00  0.00  0.78  0.00
  YS02001751YS02001754    1.00   0.00  0.00  0.00  0.92  0.00  0.00  0.08  0.02  0.00
  YS02001754YS02001757    1.00   0.00  0.00  0.00  0.99  0.01  0.00  0.00  0.27  0.00
  YS02001882YS02001884    1.00   0.06  0.00  0.00  0.93  0.00  0.00  0.00  0.00  0.00
  YS02001884YS02001887    1.00   0.04  0.01  0.00  0.95  0.00  0.00  0.00  0.00  0.00
  YS02001890YS02001895    1.00   0.00  0.07  0.00  0.93  0.00  0.00  0.00  0.00  0.00
  YS02001895YS02001898    1.00   0.07  0.00  0.00  0.92  0.00  0.01  0.00  0.00  0.00
  YS02001898YS02001901    1.00   0.07  0.01  0.00  0.93  0.00  0.00  0.00  0.02  0.00
  YS02001901YS02001904    1.00   0.07  0.00  0.00  0.93  0.00  0.00  0.00  0.00  0.00
  YS02001904YS02001907    1.00   0.00  0.06  0.00  0.93  0.00  0.00  0.00  0.00  0.00
  YS02001887YS02001890    1.00   0.00  0.00  0.00  0.97  0.00  0.03  0.00  0.00  0.00
  YS02001652YS02001649    1.00   0.00  0.00  0.00  1.00  0.00  0.00  0.00  0.27  0.00
  YS02001655YS02001652    1.00   0.00  0.00  0.00  0.92  0.00  0.00  0.08  0.02  0.00
  YS02001658YS02001655    1.00   0.00  0.06  0.00  0.91  0.03  0.00  0.00  0.78  0.00
  YS02001661YS02001658    1.00   0.06  0.00  0.00  0.00  0.94  0.00  0.00  0.72  0.00
  YS02001664YS02001661    1.00   0.05  0.00  0.00  0.95  0.00  0.00  0.00  0.86  0.00
  YSB1154YSB6556          1.00   0.05  0.00  0.00  0.95  0.00  0.00  0.00  0.02  0.00
  YSB1174YSB1171          1.00   0.03  0.01  0.00  0.96  0.00  0.00  0.00  0.00  0.00
  YSB1171HS02004479       1.00   0.03  0.00  0.00  0.97  0.00  0.00  0.00  0.13  0.00
  HS02004881HS02006253    1.00   0.03  0.00  0.00  0.72  0.02  0.00  0.23  0.52  0.00
  YS02001793JiankangQianchi    1.00   0.00  0.00  0.00  0.07  0.93  0.00  0.00  0.10  0.00
  YS02001757CaochengTiaoxuchi    1.00   0.00  0.09  0.00  0.91  0.00  0.00  0.00  0.00  0.00
  WSF200WS02003060        1.00   0.00  0.06  0.00  0.82  0.12  0.00  0.00  0.50  0.00
  1                       1.00   0.00  0.00  0.00  0.00  1.00  0.00  0.00  0.38  0.00
  2                       1.00   0.77  0.00  0.00  0.00  0.23  0.00  0.00  0.05  0.00
  3                       1.00   0.29  0.00  0.00  0.00  0.71  0.00  0.00  0.34  0.00
  4                       1.00   1.00  0.00  0.00  0.00  0.00  0.00  0.00  0.00  0.00
  
  
  *************************
  Conduit Surcharge Summary
  *************************
  
  ----------------------------------------------------------------------------
                                                           Hours        Hours 
                         --------- Hours Full --------   Above Full   Capacity
  Conduit                Both Ends  Upstream  Dnstream   Normal Flow   Limited
  ----------------------------------------------------------------------------
  WS02006229WS02006228        0.98      1.11      0.98      3.01         0.98
  WS02006256WS02006235        5.41      5.41      7.53      1.99         0.01
  WS02006252WS02006251        0.73      0.73      1.47      1.21         0.01
  WS02006251WS02006249        0.01      0.01      0.01      0.73         0.01
  WS02006249WS02006248        0.01      0.01      0.01      2.92         0.01
  WS02006247WS02006245        0.01      0.01      0.01      4.22         0.01
  WS02006243WS02006242        0.01      0.01      0.67      0.01         0.01
  WS02006242WS02006240        0.01      0.01      0.88      1.39         0.01
  WS02006240WS02006239        0.01      0.01      0.15      0.01         0.01
  WS02006239WS02006238        0.79      0.79      0.84      0.12         0.14
  WS02006238WS02006235        0.77      0.77      1.08      0.01         0.01
  WS02006235WS02006234        0.01      0.01      0.65      5.42         0.01
  WS02006234WS02006232        0.03      0.03      1.14      0.01         0.01
  WS02006232WS02006231        0.01      0.01      1.14      0.01         0.01
  WS02006231WS02006230        0.01      0.01      0.01      5.42         0.01
  WS02006230WS02006229        1.61      2.53      1.61      5.59         1.61
  WS02006228WS02006109        1.03      1.42      1.03      4.33         1.03
  WS02006111WS02006112        0.01      0.01      3.27      0.01         0.01
  WS02006110WS02006113        0.01      0.01      1.25      0.01         0.01
  WS02006109WS02006110        0.01      0.01      1.42      0.01         0.01
  WS02004404WS02004405        0.01      0.01      0.01      5.49         0.01
  WS02003072WS02003073        0.01      0.01      0.01      4.99         0.01
  YS02001793JiankangQianchi        0.01      0.01      0.23      0.01         0.01
  
  
  ***************
  Pumping Summary
  ***************
  
  ---------------------------------------------------------------------------------------------------------
                                                  Min       Avg       Max     Total     Power    % Time Off
                        Percent   Number of      Flow      Flow      Flow    Volume     Usage    Pump Curve
  Pump                 Utilized   Start-Ups       LPS       LPS       LPS  10^6 ltr     Kw-hr    Low   High
  ---------------------------------------------------------------------------------------------------------
  CC-Pump-1               61.70           4      0.00    127.05    200.00     2.147      9.58    0.0  100.0
  CC-Pump-2               53.18           4      0.00    117.39    200.00     1.708      7.72    0.0  100.0
  JK-Pump-1               82.97           8      0.00     98.51    300.00     1.747     33.23    0.0    0.0
  JK-Pump-2               85.09           6      0.00     83.97    288.88     1.426     27.70    0.0    0.0
  XR-Pump-1               89.35           5      0.00     71.40     95.00     1.881     40.52    0.0    0.0
  XR-Pump-2               91.48           8      0.00     77.64     95.00     1.938     42.30    0.0    0.0
  XR-Pump-3               87.22           6      0.00     78.71     95.00     1.909     41.98    0.0    0.0
  XR-Pump-4               89.34          12      0.00     66.15     95.00     1.767     37.17    0.0    0.0
  

  Analysis begun on:  Tue Dec 21 13:22:57 2021
  Analysis ended on:  Tue Dec 21 13:22:59 2021
  Total elapsed time: 00:00:02