
  EPA STORM WATER MANAGEMENT MODEL - VERSION 5.1 (Build 5.3.0.dev0)
  --------------------------------------------------------------

  WARNING 04: minimum elevation drop used for Conduit WS02004404WS02004405
  WARNING 03: negative offset ignored for Link YS02001904YS02001907
  
  *********************************************************
  NOTE: The summary statistics displayed in this report are
  based on results found at every computational time step,  
  not just on results from each reporting time step.
  *********************************************************
  
  ****************
  Analysis Options
  ****************
  Flow Units ............... LPS
  Process Models:
    Rainfall/Runoff ........ YES
    RDII ................... NO
    Snowmelt ............... NO
    Groundwater ............ NO
    Flow Routing ........... YES
    Ponding Allowed ........ NO
    Water Quality .......... NO
  Infiltration Method ...... HORTON
  Flow Routing Method ...... DYNWAVE
  Surcharge Method ......... EXTRAN
  Starting Date ............ 08/28/2015 08:00:00
  Ending Date .............. 08/28/2015 15:50:00
  Antecedent Dry Days ...... 8.0
  Report Time Step ......... 00:01:00
  Wet Time Step ............ 00:01:00
  Dry Time Step ............ 00:01:00
  Routing Time Step ........ 5.00 sec
  Variable Time Step ....... YES
  Maximum Trials ........... 8
  Number of Threads ........ 4
  Head Tolerance ........... 0.001500 m
  
  
  **************************        Volume         Depth
  Runoff Quantity Continuity     hectare-m            mm
  **************************     ---------       -------
  Total Precipitation ......         1.797         3.934
  Evaporation Loss .........         0.000         0.000
  Infiltration Loss ........         0.442         0.967
  Surface Runoff ...........         0.570         1.248
  Final Storage ............         0.785         1.719
  Continuity Error (%) .....        -0.017
  
  
  **************************        Volume        Volume
  Flow Routing Continuity        hectare-m      10^6 ltr
  **************************     ---------     ---------
  Dry Weather Inflow .......         0.616         6.165
  Wet Weather Inflow .......         0.570         5.697
  Groundwater Inflow .......         0.000         0.000
  RDII Inflow ..............         0.000         0.000
  External Inflow ..........         0.102         1.024
  External Outflow .........         1.455        14.547
  Flooding Loss ............         0.000         0.000
  Evaporation Loss .........         0.000         0.000
  Exfiltration Loss ........         0.000         0.000
  Initial Stored Volume ....         0.076         0.761
  Final Stored Volume ......         0.159         1.587
  Continuity Error (%) .....       -18.236
  
  
  *************************
  Highest Continuity Errors
  *************************
  Node JK-storage (-68.80%)
  Node HS02004842 (38.68%)
  Node YS02001884 (32.64%)
  Node YS02001774 (17.27%)
  Node YSB1171 (11.43%)
  
  
  ***************************
  Time-Step Critical Elements
  ***************************
  Link WS02006252WS02006251 (74.63%)
  Link 3 (15.64%)
  Link WS02006238WS02006235 (2.55%)
  Link WS02006280WS02006229 (2.33%)
  
  
  ********************************
  Highest Flow Instability Indexes
  ********************************
  Link WS02006113WS02006111 (42)
  Link WS02006111WS02006112 (22)
  Link YS02001754YS02001757 (3)
  Link YS02001751YS02001754 (3)
  Link YS02001762YS02001759 (2)
  
  
  *************************
  Routing Time Step Summary
  *************************
  Minimum Time Step           :     0.50 sec
  Average Time Step           :     0.95 sec
  Maximum Time Step           :     5.00 sec
  Percent in Steady State     :    -0.00
  Average Iterations per Step :     2.05
  Percent Not Converging      :     0.04
  
  
  ***************************
  Subcatchment Runoff Summary
  ***************************
  
  ------------------------------------------------------------------------------------------------------------------------------
                            Total      Total      Total      Total     Imperv       Perv      Total       Total     Peak  Runoff
                           Precip      Runon       Evap      Infil     Runoff     Runoff     Runoff      Runoff   Runoff   Coeff
  Subcatchment                 mm         mm         mm         mm         mm         mm         mm    10^6 ltr      LPS
  ------------------------------------------------------------------------------------------------------------------------------
  sub0                       3.93       0.00       0.00       0.28       2.39       0.00       2.39        0.00     0.73   0.608
  sub1                       3.93       0.00       0.00       0.43       2.25       0.00       2.25        0.01     3.65   0.572
  sub2                       3.93       0.00       0.00       1.46       1.58       0.00       1.58        0.01     3.20   0.400
  sub3                       3.93       0.00       0.00       1.46       1.54       0.00       1.54        0.03     6.50   0.393
  sub4                       3.93       0.00       0.00       0.43       2.13       0.00       2.13        0.04     7.20   0.540
  sub5                       3.93       0.00       0.00       0.28       2.35       0.00       2.35        0.03     6.50   0.597
  sub7                       3.93       0.00       0.00       0.35       2.33       0.00       2.33        0.01     2.33   0.591
  sub8                       3.93       0.00       0.00       0.35       2.32       0.00       2.32        0.01     4.09   0.589
  sub9                       3.93       0.00       0.00       0.35       2.32       0.00       2.32        0.01     3.03   0.589
  sub10                      3.93       0.00       0.00       0.31       2.33       0.00       2.33        0.03     6.51   0.592
  sub11                      3.93       0.00       0.00       0.31       2.35       0.00       2.35        0.03     7.71   0.596
  sub12                      3.93       0.00       0.00       0.51       2.23       0.00       2.23        0.02     6.64   0.568
  sub14                      3.93       0.00       0.00       0.35       2.31       0.00       2.31        0.02     5.91   0.588
  sub15                      3.93       0.00       0.00       1.18       1.78       0.00       1.78        0.03     8.00   0.452
  sub16                      3.93       0.00       0.00       1.30       1.72       0.00       1.72        0.02     5.81   0.437
  sub17                      3.93       0.00       0.00       1.26       1.74       0.00       1.74        0.01     4.68   0.443
  sub22                      3.93       0.00       0.00       1.69       1.45       0.00       1.45        0.09    26.40   0.370
  sub23                      3.93       0.00       0.00       1.46       1.61       0.00       1.61        0.08    22.54   0.409
  sub60                      3.93       0.00       0.00       0.47       1.35       0.00       1.35        0.41    33.98   0.344
  sub61                      3.93       0.00       0.00       0.67       1.50       0.00       1.50        0.46    43.58   0.382
  sub62                      3.93       0.00       0.00       0.31       1.59       0.00       1.59        0.49    44.33   0.405
  sub63                      3.93       0.00       0.00       1.14       1.36       0.00       1.36        0.41    40.95   0.345
  sub64                      3.93       0.00       0.00       0.59       1.29       0.00       1.29        0.39    32.20   0.328
  sub65                      3.93       0.00       0.00       0.51       1.30       0.00       1.30        0.40    32.60   0.331
  sub66                      3.93       0.00       0.00       1.14       1.14       0.00       1.14        0.35    29.79   0.289
  sub67                      3.93       0.00       0.00       0.31       1.81       0.00       1.81        0.56    57.80   0.460
  sub68                      3.93       0.00       0.00       0.55       1.61       0.00       1.61        0.50    48.39   0.410
  sub69                      3.93       0.00       0.00       0.59       1.80       0.00       1.80        0.42    48.97   0.458
  sub70                      3.93       1.84       0.00       1.96       2.04       0.00       2.04        0.47    35.35   0.353
  sub71                      3.93       0.00       0.00       0.31       1.50       0.00       1.50        0.35    30.71   0.382
  sub72                      3.93       0.00       0.00       0.28       0.98       0.00       0.98        0.20    13.74   0.250
  sub73                      3.93       1.98       0.00       2.01       1.96       0.00       1.96        0.46    30.14   0.331
  sub74                      3.93       0.00       0.00       2.95       0.55       0.00       0.55        0.22    27.52   0.140
  
  
  ******************
  Node Depth Summary
  ******************
  
  ---------------------------------------------------------------------------------
                                 Average  Maximum  Maximum  Time of Max    Reported
                                   Depth    Depth      HGL   Occurrence   Max Depth
  Node                 Type       Meters   Meters   Meters  days hr:min      Meters
  ---------------------------------------------------------------------------------
  WS02001211           JUNCTION     0.64     0.77     5.61     0  04:30        0.77
  WS02001212           JUNCTION     0.37     0.48     5.54     0  04:31        0.48
  WS02001213           JUNCTION     0.60     0.72     5.48     0  04:31        0.72
  WS02003069           JUNCTION     0.41     0.52     5.11     0  04:33        0.52
  WS02003072           JUNCTION     0.48     0.59     4.96     0  04:33        0.59
  WS02003073           JUNCTION     0.29     0.36     4.42     0  04:34        0.36
  WS02003060           JUNCTION     0.37     0.46     5.40     0  04:32        0.46
  WS02003066           JUNCTION     0.22     0.28     5.83     0  03:11        0.28
  WS02003059           JUNCTION     0.66     0.77     5.46     0  04:32        0.77
  WS02003067           JUNCTION     0.55     0.66     5.98     0  03:11        0.66
  WS02004401           JUNCTION     0.64     0.78     6.78     0  03:08        0.78
  WS02004402           JUNCTION     0.67     0.81     6.77     0  03:08        0.81
  WS02004403           JUNCTION     0.69     0.83     6.76     0  03:08        0.83
  WS02004404           JUNCTION     0.77     0.90     6.75     0  03:08        0.90
  WS02004406           JUNCTION     0.78     0.91     6.74     0  03:09        0.91
  WS02004409           JUNCTION     0.46     0.60     6.37     0  03:10        0.60
  WS02004410           JUNCTION     0.48     0.62     6.34     0  03:10        0.62
  WS02004411           JUNCTION     0.49     0.63     6.31     0  03:10        0.63
  WS02004412           JUNCTION     0.51     0.64     6.28     0  03:10        0.64
  WS02004413           JUNCTION     0.67     0.81     6.28     0  03:11        0.81
  WS02004405           JUNCTION     0.76     0.90     6.75     0  03:08        0.90
  WS02006109           JUNCTION     0.71     0.88     7.49     0  02:48        0.87
  WS02006110           JUNCTION     0.71     0.85     7.44     0  02:48        0.85
  WS02006111           JUNCTION     0.21     0.26     6.97     0  02:48        0.26
  WS02006112           JUNCTION     0.80     0.97     6.85     0  03:07        0.96
  WS02006113           JUNCTION     0.32     0.41     7.30     0  02:49        0.41
  WS02006115           JUNCTION     0.53     0.68     6.82     0  03:07        0.68
  WS02006116           JUNCTION     0.61     0.76     6.80     0  03:07        0.76
  WS02006230           JUNCTION     0.67     0.90     7.64     0  03:05        0.90
  WS02006231           JUNCTION     0.45     0.61     7.73     0  03:05        0.61
  WS02006232           JUNCTION     0.59     0.75     7.79     0  03:06        0.75
  WS02006234           JUNCTION     0.51     0.70     7.86     0  03:05        0.70
  WS02006235           JUNCTION     0.54     0.74     7.91     0  03:05        0.74
  WS02006238           JUNCTION     0.56     0.77     7.92     0  03:05        0.77
  WS02006240           JUNCTION     0.46     0.70     8.00     0  03:05        0.70
  WS02006242           JUNCTION     0.52     0.78     8.04     0  03:06        0.78
  WS02006243           JUNCTION     0.40     0.67     8.09     0  03:06        0.67
  WS02006245           JUNCTION     0.39     0.64     8.12     0  03:06        0.64
  WS02006247           JUNCTION     0.41     0.65     8.15     0  03:06        0.65
  WS02006248           JUNCTION     0.36     0.59     8.18     0  03:06        0.59
  WS02006249           JUNCTION     0.39     0.60     8.20     0  03:06        0.60
  WS02006239           JUNCTION     0.52     0.75     7.96     0  03:05        0.75
  WS02006251           JUNCTION     0.38     0.63     8.30     0  03:07        0.63
  WS02006252           JUNCTION     0.35     0.58     8.83     0  07:00        0.58
  WS02006253           JUNCTION     0.41     0.65     8.30     0  03:07        0.65
  WS02006256           JUNCTION     0.96     1.15     8.09     0  00:00        1.13
  WS02004138           JUNCTION     0.15     0.19     7.44     0  00:30        0.19
  WS02004407           JUNCTION     0.21     0.27     6.58     0  03:09        0.27
  WS02006228           JUNCTION     0.71     0.89     7.54     0  02:47        0.89
  WS02006229           JUNCTION     0.68     0.88     7.57     0  02:47        0.88
  WS02006280           JUNCTION     0.05     0.10     8.38     0  02:25        0.10
  WS02006284           JUNCTION     0.34     0.42     8.82     0  02:25        0.42
  WS02006287           JUNCTION     0.07     0.15     9.11     0  02:25        0.15
  WSF200               JUNCTION     0.20     0.28     5.51     0  03:07        0.28
  HS02004901           JUNCTION     0.10     0.18    10.00     0  02:24        0.18
  HS02004881           JUNCTION     0.00     0.02     9.04     0  02:25        0.02
  HS02004876           JUNCTION     0.03     0.08     9.11     0  02:25        0.08
  HS02004870           JUNCTION     0.01     0.03     9.31     0  02:24        0.03
  HS02004862           JUNCTION     0.01     0.03     9.41     0  02:25        0.03
  HS02004856           JUNCTION     0.07     0.09     9.52     0  02:24        0.09
  HS02004852           JUNCTION     0.00     0.02     9.53     0  02:26        0.02
  HS02004848           JUNCTION     0.00     0.02     9.62     0  02:22        0.02
  HS02004842           JUNCTION     0.32     0.35     9.62     0  02:22        0.35
  HS02004837           JUNCTION     0.02     0.04     9.62     0  02:22        0.04
  HS02004830           JUNCTION     0.03     0.05     9.52     0  02:23        0.05
  HS02004824           JUNCTION     0.02     0.03     9.43     0  02:26        0.03
  HS02004817           JUNCTION     0.41     0.48     9.33     0  02:25        0.48
  HS02004807           JUNCTION     0.10     0.16     9.33     0  02:25        0.16
  HS02004802           JUNCTION     0.14     0.19     9.32     0  02:25        0.19
  HS02004799           JUNCTION     0.09     0.19     9.40     0  02:23        0.19
  HS02004792           JUNCTION     0.02     0.06     9.59     0  02:22        0.06
  HS02004788           JUNCTION     0.02     0.05     9.95     0  02:24        0.05
  HS02004785           JUNCTION     0.03     0.09     9.99     0  02:24        0.09
  HS02004777           JUNCTION     0.12     0.20    10.00     0  02:23        0.20
  HS02004770           JUNCTION     0.09     0.17    10.00     0  02:23        0.17
  HS02004480           JUNCTION     0.05     0.14     9.38     0  02:24        0.14
  HS02004479           JUNCTION     0.09     0.18     9.38     0  02:24        0.18
  HS02004478           JUNCTION     0.04     0.09     9.32     0  02:25        0.09
  YS02001745           JUNCTION     0.06     0.08     7.60     0  03:01        0.08
  YS02001748           JUNCTION     0.07     0.09     7.17     0  03:01        0.09
  YS02001751           JUNCTION     0.18     0.29     7.17     0  03:08        0.29
  YS02001754           JUNCTION     0.43     0.57     7.18     0  03:08        0.57
  YS02001762           JUNCTION     0.62     0.77     7.17     0  03:05        0.77
  YS02001765           JUNCTION     0.58     0.72     7.17     0  03:12        0.72
  YS02001767           JUNCTION     0.54     0.68     7.17     0  03:11        0.68
  YS02001770           JUNCTION     0.54     0.67     7.17     0  03:02        0.67
  YS02001774           JUNCTION     0.60     0.74     7.17     0  03:02        0.74
  YS02001779           JUNCTION     0.36     0.48     7.17     0  03:02        0.48
  YS02001882           JUNCTION     0.22     0.31     7.03     0  03:00        0.31
  YS02001884           JUNCTION     0.31     0.41     7.03     0  03:01        0.41
  YS02001759           JUNCTION     0.66     0.80     7.17     0  03:07        0.80
  YS02001887           JUNCTION     0.39     0.49     7.03     0  03:01        0.49
  YS02001890           JUNCTION     0.42     0.52     7.03     0  03:00        0.52
  YS02001898           JUNCTION     0.19     0.28     7.01     0  03:02        0.28
  YS02001901           JUNCTION     0.31     0.40     7.01     0  03:01        0.40
  YS02001904           JUNCTION     0.29     0.38     7.01     0  03:01        0.38
  YS02001907           JUNCTION     0.61     0.72     7.01     0  03:01        0.72
  YS02001910           JUNCTION     0.40     0.50     7.01     0  03:00        0.50
  YS02001915           JUNCTION     0.21     0.29     7.01     0  03:01        0.29
  YS02001918           JUNCTION     0.06     0.07     7.13     0  03:04        0.07
  YS02001619           JUNCTION     0.15     0.24     7.17     0  03:07        0.24
  YS02001629           JUNCTION     0.49     0.62     7.17     0  03:06        0.62
  YS02001641           JUNCTION     0.59     0.73     7.17     0  03:07        0.73
  YS02001644           JUNCTION     0.60     0.74     7.17     0  03:10        0.73
  YS02001652           JUNCTION     0.44     0.57     7.17     0  03:04        0.57
  YS02001655           JUNCTION     0.21     0.32     7.17     0  03:04        0.32
  YS02001920           JUNCTION     0.14     0.16     7.17     0  03:04        0.16
  YS02001923           JUNCTION     0.04     0.06     7.32     0  03:02        0.06
  YS02001926           JUNCTION     0.11     0.13     7.57     0  03:02        0.13
  YS02001929           JUNCTION     0.05     0.06     7.75     0  03:01        0.06
  YS02001658           JUNCTION     0.06     0.09     7.23     0  02:53        0.09
  YS02001661           JUNCTION     0.12     0.16     7.56     0  02:53        0.16
  YS02001664           JUNCTION     0.05     0.08     8.00     0  02:53        0.08
  YS02001622           JUNCTION     0.17     0.27     7.17     0  03:07        0.27
  YS02001633           JUNCTION     0.58     0.71     7.17     0  03:06        0.71
  YS02001649           JUNCTION     0.63     0.78     7.17     0  03:09        0.78
  YS02001757           JUNCTION     0.76     0.91     7.17     0  03:11        0.91
  YS02001895           JUNCTION     0.19     0.27     7.02     0  03:01        0.27
  YS02001625           JUNCTION     0.44     0.57     7.17     0  03:07        0.57
  YS02163301           JUNCTION     0.52     0.65     7.17     0  03:06        0.65
  YS02163601           JUNCTION     0.63     0.77     7.17     0  03:06        0.77
  YS02164001           JUNCTION     0.57     0.71     7.17     0  03:07        0.71
  YS02001647           JUNCTION     0.43     0.56     7.17     0  03:10        0.56
  YSB1154              JUNCTION     0.23     0.32     9.38     0  02:24        0.32
  YSB6556              JUNCTION     0.12     0.21     9.38     0  02:23        0.21
  YSB1174              JUNCTION     0.18     0.27     9.38     0  02:24        0.27
  YSB1171              JUNCTION     0.38     0.48     9.38     0  02:24        0.48
  YS02006553           JUNCTION     0.62     0.73     7.01     0  03:01        0.73
  YS02006561           JUNCTION     0.10     0.15     6.81     0  03:01        0.15
  YS02006556           JUNCTION     0.59     0.70     7.01     0  03:01        0.70
  YS02006558           JUNCTION     0.64     0.74     7.01     0  03:01        0.74
  YS02001783           JUNCTION     0.17     0.26     6.40     0  03:01        0.26
  YS02001784           JUNCTION     0.21     0.30     6.37     0  03:02        0.30
  YS02001786           JUNCTION     0.18     0.25     6.28     0  03:02        0.25
  YS02001788           JUNCTION     0.13     0.18     6.16     0  03:02        0.18
  YS02001790           JUNCTION     0.15     0.22     5.87     0  03:02        0.22
  YS02001791           JUNCTION     0.10     0.15     5.62     0  03:02        0.15
  YS02001793           JUNCTION     0.07     0.10     4.93     0  03:03        0.10
  WS02004139           JUNCTION     0.59     0.71     5.62     0  04:30        0.71
  WSC                  OUTFALL      0.29     0.36     1.03     0  04:34        0.36
  3                    OUTFALL      0.05     0.13     6.13     0  00:00        0.13
  4                    OUTFALL      0.01     0.10     7.10     0  03:06        0.10
  5                    OUTFALL      0.00     0.00     5.00     0  00:00        0.00
  JK-storage           STORAGE      0.04     3.00     3.80     0  00:00        2.70
  CC-storage           STORAGE      0.00     0.03     7.03     0  06:51        0.03
  XR-storage           STORAGE      3.92     6.56     4.56     0  00:25        6.55
  
  
  *******************
  Node Inflow Summary
  *******************
  
  -------------------------------------------------------------------------------------------------
                                  Maximum  Maximum                  Lateral       Total        Flow
                                  Lateral    Total  Time of Max      Inflow      Inflow     Balance
                                   Inflow   Inflow   Occurrence      Volume      Volume       Error
  Node                 Type           LPS      LPS  days hr:min    10^6 ltr    10^6 ltr     Percent
  -------------------------------------------------------------------------------------------------
  WS02001211           JUNCTION      7.35   381.85     0  06:20       0.207        6.79       0.562
  WS02001212           JUNCTION      0.00   377.98     0  06:21           0        6.75       0.328
  WS02001213           JUNCTION      0.00   376.66     0  06:21           0        6.73       0.297
  WS02003069           JUNCTION      0.32   784.96     0  04:32     0.00902        13.1       0.198
  WS02003072           JUNCTION      0.00   784.40     0  04:33           0        13.1       0.247
  WS02003073           JUNCTION      1.82   785.74     0  04:33      0.0514        13.1       0.275
  WS02003060           JUNCTION     16.53   784.85     0  04:32       0.466        13.1       0.190
  WS02003066           JUNCTION      0.00   448.41     0  03:11           0        6.02       0.057
  WS02003059           JUNCTION      0.00   375.65     0  06:22           0        6.71       0.587
  WS02003067           JUNCTION      0.00   448.41     0  03:11           0        6.02       0.127
  WS02004401           JUNCTION      0.00   449.32     0  03:05           0        6.22       0.291
  WS02004402           JUNCTION      0.00   449.09     0  03:06           0         6.2       0.279
  WS02004403           JUNCTION      0.00   449.08     0  03:08           0        6.18       0.258
  WS02004404           JUNCTION      0.16   449.10     0  03:08     0.00457        6.17       0.200
  WS02004406           JUNCTION      0.00   449.20     0  03:08           0        6.14       0.489
  WS02004409           JUNCTION      0.00   449.10     0  03:09           0        6.11       0.197
  WS02004410           JUNCTION      0.00   448.87     0  03:09           0        6.09       0.228
  WS02004411           JUNCTION      0.00   448.67     0  03:10           0        6.08       0.240
  WS02004412           JUNCTION      0.00   448.57     0  03:10           0        6.06       0.269
  WS02004413           JUNCTION      0.00   448.44     0  03:10           0        6.05       0.413
  WS02004405           JUNCTION      0.04   449.15     0  03:07     0.00107        6.16       0.299
  WS02006109           JUNCTION      1.23   451.86     0  02:47      0.0347         6.3       0.296
  WS02006110           JUNCTION      0.00   451.83     0  02:47           0        6.29       0.267
  WS02006111           JUNCTION      0.00   464.38     0  02:48           0        6.26       0.052
  WS02006112           JUNCTION      4.68   456.01     0  02:48      0.0149        6.27       0.407
  WS02006113           JUNCTION      0.00   451.94     0  02:48           0        6.27       0.118
  WS02006115           JUNCTION      0.00   451.48     0  02:49           0        6.25       0.253
  WS02006116           JUNCTION      0.00   449.72     0  03:05           0        6.23       0.245
  WS02006230           JUNCTION     10.28   391.65     0  04:05        0.29         5.7       0.174
  WS02006231           JUNCTION      0.00   381.72     0  04:03           0        5.42       0.191
  WS02006232           JUNCTION      0.00   381.78     0  04:03           0        5.44       0.248
  WS02006234           JUNCTION      0.00   382.89     0  04:02           0        5.44       0.093
  WS02006235           JUNCTION      0.00   383.53     0  04:01           0        5.48       0.163
  WS02006238           JUNCTION      0.00   335.70     0  04:20           0        3.73       0.151
  WS02006240           JUNCTION      0.00   326.86     0  04:20           0        3.71       0.213
  WS02006242           JUNCTION      0.00   330.29     0  07:01           0        3.71       0.279
  WS02006243           JUNCTION      0.00   338.61     0  07:01           0         3.7      -0.126
  WS02006245           JUNCTION      0.00   344.62     0  07:01           0         3.7       0.253
  WS02006247           JUNCTION      0.00   350.41     0  07:01           0        3.71       0.148
  WS02006248           JUNCTION      0.00   354.67     0  07:00           0        3.71       0.057
  WS02006249           JUNCTION      0.00   410.02     0  03:01           0        3.91       0.246
  WS02006239           JUNCTION      0.00   332.46     0  04:20           0        3.72       0.185
  WS02006251           JUNCTION      0.08   410.95     0  03:01     0.00217           4       0.154
  WS02006252           JUNCTION      0.00   400.00     0  03:00           0        3.84       0.007
  WS02006253           JUNCTION      0.73    48.17     0  04:56     0.00194       0.158       1.361
  WS02006256           JUNCTION      0.00   308.95     0  03:05           0        3.06       0.083
  WS02004138           JUNCTION      0.00   379.95     0  05:50           0        6.61       0.054
  WS02004407           JUNCTION      0.00   449.12     0  03:09           0        6.11       0.092
  WS02006228           JUNCTION      0.00   450.63     0  02:47           0        6.28       0.198
  WS02006229           JUNCTION      0.00   450.51     0  02:47           0        6.29       0.165
  WS02006280           JUNCTION      0.00   107.89     0  02:25           0       0.599       0.012
  WS02006284           JUNCTION      0.10   107.89     0  02:25      0.0027         0.6       0.192
  WS02006287           JUNCTION      0.00   107.80     0  02:25           0       0.598       0.116
  WSF200               JUNCTION      0.00   448.41     0  03:11           0        6.01       0.050
  HS02004901           JUNCTION      5.81     5.81     0  02:14       0.018      0.0181      10.735
  HS02004881           JUNCTION      2.33    18.98     0  02:25     0.00783      0.0809       0.255
  HS02004876           JUNCTION      3.65    16.95     0  02:23      0.0149      0.0736       0.705
  HS02004870           JUNCTION      4.09    13.40     0  02:23      0.0148      0.0588       0.179
  HS02004862           JUNCTION      3.40     9.62     0  02:24      0.0203      0.0441       0.377
  HS02004856           JUNCTION      3.03     6.26     0  02:23      0.0111      0.0252       6.032
  HS02004852           JUNCTION      0.00     3.45     0  02:24           0      0.0142       0.332
  HS02004848           JUNCTION      6.50     6.50     0  02:25      0.0347      0.0347       0.119
  HS02004842           JUNCTION      0.00     4.47     0  00:03           0      0.0336      63.067
  HS02004837           JUNCTION     12.86    15.79     0  02:21       0.205       0.225       0.362
  HS02004830           JUNCTION      0.15    15.93     0  02:22     0.00423       0.216       0.574
  HS02004824           JUNCTION      7.25    23.09     0  02:26      0.0457        0.26       0.207
  HS02004817           JUNCTION      0.60    23.69     0  02:26      0.0169       0.277       6.408
  HS02004807           JUNCTION      7.71    30.67     0  02:25      0.0272       0.287       1.492
  HS02004802           JUNCTION      0.00    30.69     0  02:26           0       0.283       1.452
  HS02004799           JUNCTION      5.91    65.72     0  02:22       0.022       0.288       0.783
  HS02004792           JUNCTION     26.68    60.04     0  02:22      0.0997       0.266       0.157
  HS02004788           JUNCTION      9.67    35.09     0  02:23      0.0776       0.168       0.235
  HS02004785           JUNCTION      0.15    25.88     0  02:23     0.00423      0.0921       0.519
  HS02004777           JUNCTION      0.03    26.26     0  02:20    0.000846      0.0923       5.931
  HS02004770           JUNCTION     22.54    27.34     0  02:18      0.0767      0.0931       3.443
  HS02004480           JUNCTION      0.00    77.32     0  02:23           0       0.331       0.203
  HS02004479           JUNCTION      0.00    11.87     0  02:25           0      0.0558       1.319
  HS02004478           JUNCTION      0.00   107.81     0  02:24           0       0.599       0.111
  YS02001745           JUNCTION     33.98    33.98     0  03:01        0.41        0.41       0.080
  YS02001748           JUNCTION      0.04    34.02     0  03:01     0.00127       0.411       0.039
  YS02001751           JUNCTION      0.01    62.24     0  04:37     0.00031       0.523       0.355
  YS02001754           JUNCTION      0.26   197.23     0  04:44     0.00733       0.936       0.968
  YS02001762           JUNCTION      0.00    51.21     0  03:04           0       0.544       2.486
  YS02001765           JUNCTION      0.00    72.58     0  04:25           0       0.532       2.647
  YS02001767           JUNCTION      0.54    61.27     0  04:33      0.0151       0.537       3.738
  YS02001770           JUNCTION     44.48    54.00     0  02:37       0.494       0.513       3.206
  YS02001774           JUNCTION      0.00    27.75     0  02:34           0      0.0832      20.868
  YS02001779           JUNCTION      0.01    15.13     0  02:34    0.000141      0.0494      11.538
  YS02001882           JUNCTION      0.00     2.12     0  02:09           0     0.00319      77.083
  YS02001884           JUNCTION      0.00     6.63     0  02:07           0       0.013      48.460
  YS02001759           JUNCTION     43.62   101.84     0  03:03       0.464       0.981       1.636
  YS02001887           JUNCTION     58.25    58.25     0  02:50       0.571       0.577       1.137
  YS02001890           JUNCTION      0.00    58.04     0  02:52           0       0.559       1.295
  YS02001898           JUNCTION      0.00    57.81     0  02:55           0       0.549       0.316
  YS02001901           JUNCTION      0.00    57.88     0  02:56           0       0.549       0.893
  YS02001904           JUNCTION      0.00    57.58     0  02:57           0       0.548       0.834
  YS02001907           JUNCTION      0.00   104.76     0  03:02           0        1.17       1.829
  YS02001910           JUNCTION      0.00    47.44     0  03:00           0        0.63       1.502
  YS02001915           JUNCTION     30.73    47.21     0  03:01       0.355       0.634       0.598
  YS02001918           JUNCTION      0.00    16.64     0  03:04           0        0.28       0.278
  YS02001619           JUNCTION     29.79    29.79     0  03:01       0.349       0.349       0.149
  YS02001629           JUNCTION      0.00    36.07     0  02:42           0       0.333       1.624
  YS02001641           JUNCTION      0.00    66.73     0  03:09           0       0.703       1.817
  YS02001644           JUNCTION     32.24    96.11     0  03:08       0.393        1.08       1.433
  YS02001652           JUNCTION      0.00    61.12     0  04:32           0       0.468       1.814
  YS02001655           JUNCTION      0.15    41.10     0  02:53     0.00434        0.42       0.768
  YS02001920           JUNCTION      2.87    16.65     0  03:02      0.0809       0.281       0.587
  YS02001923           JUNCTION      0.04    13.78     0  03:02     0.00106       0.201       0.104
  YS02001926           JUNCTION      0.05    13.79     0  03:01     0.00147       0.201       0.759
  YS02001929           JUNCTION     13.74    13.74     0  03:01         0.2         0.2       0.098
  YS02001658           JUNCTION      0.00    40.95     0  02:53           0        0.41       0.048
  YS02001661           JUNCTION      0.00    40.95     0  02:53           0        0.41       0.174
  YS02001664           JUNCTION     40.95    40.95     0  02:53        0.41        0.41       0.034
  YS02001622           JUNCTION      0.00    30.84     0  02:51           0       0.348       0.688
  YS02001633           JUNCTION     32.80    68.69     0  02:43       0.406       0.726       2.546
  YS02001649           JUNCTION      0.00   151.85     0  03:10           0        1.49       1.577
  YS02001757           JUNCTION      0.00   353.98     0  04:25           0         3.1       2.286
  YS02001895           JUNCTION      0.00    57.82     0  02:55           0       0.552       0.552
  YS02001625           JUNCTION      0.00    33.35     0  02:52           0       0.346       4.319
  YS02163301           JUNCTION      0.00    40.39     0  02:43           0       0.334       3.714
  YS02163601           JUNCTION      0.11    69.54     0  02:42      0.0031       0.707       2.710
  YS02164001           JUNCTION      0.00    67.53     0  03:09           0       0.698       1.665
  YS02001647           JUNCTION      0.00    99.11     0  03:10           0        1.05       1.104
  YSB1154              JUNCTION      6.50     6.50     0  02:19      0.0266      0.0281       5.424
  YSB6556              JUNCTION      0.00     6.40     0  02:23           0      0.0291       4.455
  YSB1174              JUNCTION      6.64     6.64     0  02:14      0.0195      0.0205       6.670
  YSB1171              JUNCTION      0.00    11.88     0  02:22           0      0.0553      12.910
  YS02006553           JUNCTION      0.00   104.94     0  03:03           0        1.16       1.193
  YS02006561           JUNCTION      0.00   153.50     0  03:01           0        1.63       0.031
  YS02006556           JUNCTION      0.00   105.08     0  03:03           0        1.16       0.853
  YS02006558           JUNCTION     49.27   153.52     0  03:01        0.52        1.66       0.257
  YS02001783           JUNCTION      0.00   153.49     0  03:01           0        1.63       0.071
  YS02001784           JUNCTION      1.06   154.54     0  03:01      0.0299        1.66       0.119
  YS02001786           JUNCTION      0.06   154.58     0  03:02     0.00159        1.66       0.117
  YS02001788           JUNCTION      0.07   154.64     0  03:02       0.002        1.66       0.065
  YS02001790           JUNCTION      0.15   154.79     0  03:02     0.00437        1.66       0.084
  YS02001791           JUNCTION      0.00   154.79     0  03:02           0        1.66       0.040
  YS02001793           JUNCTION      0.00   154.79     0  03:03           0        1.66       0.018
  WS02004139           JUNCTION      0.32   379.66     0  06:20     0.00905        6.62       0.550
  WSC                  OUTFALL       0.00   785.14     0  04:34           0        13.1       0.000
  3                    OUTFALL       0.00   250.55     0  00:00           0        1.27       0.000
  4                    OUTFALL       0.00   108.97     0  03:06           0       0.192       0.000
  5                    OUTFALL       0.00     0.00     0  00:00           0           0       0.000 ltr
  JK-storage           STORAGE       0.00   154.79     0  03:03           0        1.81     -40.757
  CC-storage           STORAGE       0.00   249.79     0  03:09           0        2.62     -31.715
  XR-storage           STORAGE     255.73   255.73     0  03:00        6.32        6.92      -0.000
  
  
  **********************
  Node Surcharge Summary
  **********************
  
  Surcharging occurs when water rises above the top of the highest conduit.
  ---------------------------------------------------------------------
                                               Max. Height   Min. Depth
                                   Hours       Above Crown    Below Rim
  Node                 Type      Surcharged         Meters       Meters
  ---------------------------------------------------------------------
  WS02006109           JUNCTION        1.04          0.055        1.765
  WS02006232           JUNCTION        1.24          0.053        1.427
  WS02006235           JUNCTION        0.53          0.033        1.257
  WS02006238           JUNCTION        0.81          0.052        1.378
  WS02006242           JUNCTION        0.57          0.045        0.775
  WS02006239           JUNCTION        0.19          0.008        1.282
  WS02006252           JUNCTION        1.77          0.185        0.915
  WS02006228           JUNCTION        0.98          0.062        2.138
  
  
  *********************
  Node Flooding Summary
  *********************
  
  No nodes were flooded.
  
  
  **********************
  Storage Volume Summary
  **********************
  
  --------------------------------------------------------------------------------------------------
                         Average     Avg  Evap Exfil       Maximum     Max    Time of Max    Maximum
                          Volume    Pcnt  Pcnt  Pcnt        Volume    Pcnt     Occurrence    Outflow
  Storage Unit           1000 m3    Full  Loss  Loss       1000 m3    Full    days hr:min        LPS
  --------------------------------------------------------------------------------------------------
  JK-storage               0.002       1     0     0         0.151      52       0  00:00     308.95
  CC-storage               0.007       0     0     0         0.094       1       0  06:51     400.00
  XR-storage               0.471      51     0     0         0.787      85       0  00:25     379.95
  
  
  ***********************
  Outfall Loading Summary
  ***********************
  
  -----------------------------------------------------------
                         Flow       Avg       Max       Total
                         Freq      Flow      Flow      Volume
  Outfall Node           Pcnt       LPS       LPS    10^6 ltr
  -----------------------------------------------------------
  WSC                   99.99    536.13    785.14      13.085
  3                     67.03    100.38    250.55       1.270
  4                     28.90     33.67    108.97       0.192
  5                      0.00      0.00      0.00       0.000
  -----------------------------------------------------------
  System                48.98    670.18   1032.82      14.547
  
  
  ********************
  Link Flow Summary
  ********************
  
  -----------------------------------------------------------------------------
                                 Maximum  Time of Max   Maximum    Max/    Max/
                                  |Flow|   Occurrence   |Veloc|    Full    Full
  Link                 Type          LPS  days hr:min     m/sec    Flow   Depth
  -----------------------------------------------------------------------------
  WS02003066WSF200     CONDUIT    448.41     0  03:11      2.66    0.08    0.21
  WS02006287WS02006284 CONDUIT    107.80     0  02:25      1.29    0.05    0.16
  WS02006284WS02006280 CONDUIT    107.89     0  02:25      1.54    0.05    0.14
  WS02006280WS02006229 CONDUIT    107.89     0  02:25      2.47    0.02    0.10
  WS02006229WS02006228 CONDUIT    450.63     0  02:47      0.90    1.49    1.00
  WS02006256WS02006235 CONDUIT    166.25     0  00:01      2.58    1.76    1.00
  WS02006253WS02006251 CONDUIT     92.01     0  07:01      0.46    0.28    0.91
  WS02006252WS02006251 CONDUIT    400.07     0  03:00      3.18    1.47    1.00
  WS02006251WS02006249 CONDUIT    410.02     0  03:01      1.16    1.18    0.88
  WS02006249WS02006248 CONDUIT    354.67     0  07:00      1.17    1.94    0.84
  WS02006248WS02006247 CONDUIT    350.41     0  07:01      1.14    0.76    0.88
  WS02006247WS02006245 CONDUIT    344.62     0  07:01      1.12    2.73    0.91
  WS02006245WS02006243 CONDUIT    338.61     0  07:01      1.15    1.00    0.93
  WS02006243WS02006242 CONDUIT    330.29     0  07:01      1.01    0.71    0.98
  WS02006242WS02006240 CONDUIT    326.86     0  04:20      0.94    1.30    1.00
  WS02006240WS02006239 CONDUIT    332.46     0  04:20      0.95    1.05    1.00
  WS02006239WS02006238 CONDUIT    335.70     0  04:20      0.89    1.07    1.00
  WS02006238WS02006235 CONDUIT    335.49     0  04:20      1.25    0.75    1.00
  WS02006235WS02006234 CONDUIT    382.89     0  04:02      1.01    4.04    0.99
  WS02006234WS02006232 CONDUIT    381.78     0  04:03      1.13    0.77    1.00
  WS02006232WS02006231 CONDUIT    381.72     0  04:03      1.04    0.80    0.93
  WS02006231WS02006230 CONDUIT    381.37     0  04:05      1.32    5.78    0.80
  WS02006230WS02006229 CONDUIT    391.61     0  04:05      1.02    8.72    1.00
  WS02006228WS02006109 CONDUIT    450.63     0  02:47      0.90    1.97    1.00
  WS02006116WS02004401 CONDUIT    449.32     0  03:05      0.73    0.62    0.77
  WS02006115WS02006116 CONDUIT    449.72     0  03:05      0.81    0.58    0.69
  WS02006113WS02006111 CONDUIT    464.38     0  02:48      2.31    0.56    0.42
  WS02006112WS02006115 CONDUIT    451.48     0  02:49      0.68    0.27    0.82
  WS02006111WS02006112 CONDUIT    453.84     0  02:48      1.32    0.22    0.66
  WS02006110WS02006113 CONDUIT    451.94     0  02:48      1.11    0.41    0.76
  WS02006109WS02006110 CONDUIT    451.83     0  02:47      0.91    0.87    0.97
  WS02004411WS02004412 CONDUIT    448.57     0  03:10      0.85    0.64    0.64
  WS02004401WS02004402 CONDUIT    449.09     0  03:06      0.77    0.54    0.80
  WS02004413WS02003067 CONDUIT    448.41     0  03:11      1.01    0.19    0.55
  WS02004412WS02004413 CONDUIT    448.44     0  03:10      0.73    0.30    0.73
  WS02004410WS02004411 CONDUIT    448.67     0  03:10      0.87    0.61    0.63
  WS02004409WS02004410 CONDUIT    448.87     0  03:09      0.90    0.58    0.61
  WS02004407WS02004409 CONDUIT    449.10     0  03:09      1.39    0.16    0.44
  WS02004406WS02004407 CONDUIT    449.12     0  03:09      0.94    0.20    0.59
  WS02004405WS02004406 CONDUIT    449.20     0  03:08      0.66    0.89    0.90
  WS02004404WS02004405 CONDUIT    449.12     0  03:07      0.84    4.40    0.90
  WS02004403WS02004404 CONDUIT    448.94     0  03:08      0.74    0.32    0.87
  WS02004402WS02004403 CONDUIT    449.08     0  03:08      0.75    0.65    0.82
  WS02004139WS02001211 CONDUIT    374.50     0  06:20      0.58    0.47    0.58
  WS02004138WS02004139 CONDUIT    379.34     0  06:20      2.39    0.08    0.43
  WS02003067WS02003066 CONDUIT    448.41     0  03:11      1.09    0.14    0.39
  WS02001213WS02003059 CONDUIT    375.65     0  06:22      0.67    0.62    0.73
  WS02001212WS02001213 CONDUIT    376.66     0  06:21      1.30    0.58    0.44
  WS02001211WS02001212 CONDUIT    377.98     0  06:21      0.77    0.29    0.62
  WS02003072WS02003073 CONDUIT    783.92     0  04:33      1.62    1.69    0.44
  WS02003069WS02003072 CONDUIT    784.40     0  04:33      1.53    0.38    0.46
  WS02003060WS02003069 CONDUIT    784.64     0  04:32      1.79    0.31    0.41
  WS02003059WS02003060 CONDUIT    374.67     0  06:22      0.90    0.24    0.62
  HS02004901HS02004770 CONDUIT      5.09     0  02:23      0.03    0.02    0.25
  HS02004876HS02004881 CONDUIT     16.92     0  02:25      0.35    0.18    0.07
  HS02004870HS02004876 CONDUIT     13.39     0  02:24      0.25    0.01    0.08
  HS02004842HS02004848 CONDUIT      3.22     0  02:34      0.02    0.00    0.26
  HS02004837HS02004842 CONDUIT      4.47     0  00:03      0.41    0.00    0.27
  HS02004830HS02004837 CONDUIT     15.78     0  02:22      0.37    0.02    0.06
  HS02004824HS02004830 CONDUIT     15.93     0  02:23      0.41    0.02    0.05
  HS02004817HS02004824 CONDUIT     23.09     0  02:26      0.17    0.01    0.36
  HS02004770HS02004777 CONDUIT     26.23     0  02:20      0.14    0.05    0.27
  HS02004799HS02004480 CONDUIT     65.59     0  02:23      0.42    0.08    0.23
  HS02004792HS02004799 CONDUIT     60.01     0  02:22      0.48    0.04    0.18
  HS02004788HS02004792 CONDUIT     35.06     0  02:24      0.65    0.02    0.08
  HS02004785HS02004788 CONDUIT     25.78     0  02:24      0.37    0.19    0.10
  HS02004777HS02004785 CONDUIT     25.73     0  02:23      0.18    0.03    0.21
  HS02004480HS02004478 CONDUIT     77.31     0  02:24      0.72    0.33    0.15
  HS02004479HS02004480 CONDUIT     11.97     0  02:26      0.15    0.01    0.23
  HS02004862HS02004870 CONDUIT      9.58     0  02:25      0.35    0.01    0.04
  HS02004848HS02004852 CONDUIT      3.45     0  02:24      0.22    0.00    0.02
  HS02004856HS02004862 CONDUIT      6.24     0  02:24      0.25    0.01    0.04
  HS02004852HS02004856 CONDUIT      3.42     0  02:26      0.06    0.00    0.08
  HS02004802HS02004478 CONDUIT     30.81     0  02:27      0.22    0.03    0.20
  HS02004478WS02006287 CONDUIT    107.80     0  02:25      0.98    0.03    0.12
  HS02004817HS02004807 CONDUIT     23.86     0  02:29      0.08    0.01    0.45
  HS02004807HS02004802 CONDUIT     30.69     0  02:26      0.19    0.06    0.24
  YS02001759YS02001757 CONDUIT     98.03     0  03:03      0.14    0.07    0.86
  YS02001762YS02001759 CONDUIT     74.04     0  04:25      0.17    0.09    0.78
  YS02001765YS02001762 CONDUIT     51.21     0  03:04      0.22    0.05    0.74
  YS02001770YS02001767 CONDUIT     56.57     0  02:37      0.31    0.22    0.67
  YS02001774YS02001770 CONDUIT     27.75     0  02:34      0.14    0.02    0.69
  YS02001779YS02001774 CONDUIT     15.12     0  02:34      0.06    0.01    0.61
  YS02001649YS02001757 CONDUIT    145.62     0  03:00      0.21    0.09    0.84
  YS02001767YS02001765 CONDUIT     72.58     0  04:25      0.26    0.09    0.70
  YS02006561YS02001783 CONDUIT    153.49     0  03:01      1.48    0.08    0.26
  YS02001783YS02001784 CONDUIT    153.48     0  03:01      0.98    0.21    0.35
  YS02001784YS02001785 CONDUIT    154.52     0  03:02      1.01    0.36    0.34
  YS02001788YS02001790 CONDUIT    154.64     0  03:02      1.55    0.11    0.25
  YS02001790YS02001791 CONDUIT    154.79     0  03:02      1.77    0.17    0.23
  YS02001791YS02001793 CONDUIT    154.79     0  03:03      3.18    0.07    0.15
  YS02001910YS02001907 CONDUIT     47.41     0  03:01      0.49    0.03    0.61
  YS02001786YS02001788 CONDUIT    154.57     0  03:02      1.40    0.30    0.27
  YS02001915YS02001910 CONDUIT     47.44     0  03:00      0.44    0.02    0.40
  YS02001918YS02001915 CONDUIT     16.63     0  03:04      0.44    0.01    0.18
  YS02001923YS02001920 CONDUIT     13.78     0  03:02      0.30    0.01    0.11
  YS02001926YS02001923 CONDUIT     13.74     0  03:02      0.36    0.02    0.09
  YS02001929YS02001926 CONDUIT     13.74     0  03:01      0.37    0.01    0.09
  YS02001920YS02001918 CONDUIT     16.64     0  03:04      0.34    0.02    0.11
  YS02001629YS02163301 CONDUIT     40.39     0  02:43      0.09    0.05    0.64
  YS02001619YS02001622 CONDUIT     30.84     0  02:51      0.54    0.05    0.26
  YS02001622YS02001625 CONDUIT     33.35     0  02:52      0.18    0.02    0.42
  YS02001625YS02001629 CONDUIT     36.07     0  02:42      0.17    0.02    0.40
  YS02163301YS02001633 CONDUIT     37.83     0  02:43      0.09    0.04    0.68
  YS02163601YS02164001 CONDUIT     67.53     0  03:09      0.12    0.06    0.74
  YS02164001YS02001641 CONDUIT     66.73     0  03:09      0.11    0.09    0.72
  YS02001641YS02001644 CONDUIT     65.30     0  03:08      0.12    0.21    0.73
  YS02001647YS02001649 CONDUIT     99.79     0  03:10      0.18    0.05    0.67
  YS02006553YS02006556 CONDUIT    105.08     0  03:03      0.18    0.09    0.69
  YS02006556YS02006558 CONDUIT    105.15     0  03:03      0.17    0.08    0.72
  YSB6556YSB1171       CONDUIT      6.44     0  02:27      0.03    0.01    0.49
  YS02001907YS02006553 CONDUIT    104.94     0  03:03      0.15    0.12    0.79
  YS02006558YS02006561 CONDUIT    153.50     0  03:01      1.90    0.34    0.33
  YS02001633YS02163601 CONDUIT     69.43     0  02:42      0.12    0.07    0.73
  YS02001644YS02001647 CONDUIT     99.11     0  03:10      0.19    0.06    0.65
  YS02001745YS02001748 CONDUIT     33.97     0  03:01      1.15    0.01    0.08
  YS02001748YS02001751 CONDUIT     34.01     0  03:01      0.92    0.02    0.19
  YS02001751YS02001754 CONDUIT     83.91     0  04:21      0.85    0.04    0.40
  YS02001754YS02001757 CONDUIT    157.13     0  04:44      0.33    0.06    0.74
  YS02001882YS02001884 CONDUIT      2.12     0  02:09      0.06    0.00    0.33
  YS02001884YS02001887 CONDUIT      6.63     0  02:07      0.05    0.01    0.42
  YS02001890YS02001895 CONDUIT     57.82     0  02:55      0.20    0.03    0.40
  YS02001895YS02001898 CONDUIT     57.81     0  02:55      0.42    0.10    0.26
  YS02001898YS02001901 CONDUIT     57.88     0  02:56      0.25    0.04    0.34
  YS02001901YS02001904 CONDUIT     57.58     0  02:57      0.20    0.09    0.39
  YS02001904YS02001907 CONDUIT     57.79     0  03:03      0.13    0.02    0.55
  YS02001887YS02001890 CONDUIT     58.04     0  02:52      0.16    0.10    0.48
  YS02001652YS02001649 CONDUIT     59.14     0  04:17      0.28    0.03    0.67
  YS02001655YS02001652 CONDUIT     48.99     0  03:02      0.91    0.02    0.43
  YS02001658YS02001655 CONDUIT     40.95     0  02:53      1.05    0.02    0.20
  YS02001661YS02001658 CONDUIT     40.95     0  02:53      1.17    0.02    0.09
  YS02001664YS02001661 CONDUIT     40.95     0  02:53      0.78    0.01    0.12
  YSB1154YSB6556       CONDUIT      6.40     0  02:23      0.19    0.01    0.38
  YSB1174YSB1171       CONDUIT      6.05     0  02:16      0.03    0.01    0.50
  YSB1171HS02004479    CONDUIT     11.87     0  02:25      0.54    0.01    0.38
  HS02004881HS02006253 CONDUIT     18.97     0  02:25      1.26    0.00    0.23
  YS02001793JiankangQianchi CONDUIT    154.79     0  03:03     10.63    0.01    0.50
  YS02001757CaochengTiaoxuchi CONDUIT    249.79     0  03:09      0.72    0.11    0.45
  WSF200WS02003060     CONDUIT    448.83     0  03:11      1.70    0.10    0.30
  1                    CONDUIT    785.14     0  04:34      3.12    0.27    0.36
  2                    CONDUIT    108.97     0  03:06      4.96    0.26    0.35
  3                    CONDUIT    250.55     0  00:00      8.26    0.40    0.46
  4                    CONDUIT      0.00     0  00:00      0.00    0.00    0.00
  CC-Pump-1            PUMP       200.00     0  02:47              1.00
  CC-Pump-2            PUMP       200.00     0  03:00              1.00
  JK-Pump-1            PUMP       163.14     0  05:25              0.54
  JK-Pump-2            PUMP       300.00     0  00:00              1.00
  XR-Pump-1            PUMP        95.00     0  00:00              1.00
  XR-Pump-2            PUMP        95.00     0  00:30              1.00
  XR-Pump-3            PUMP        95.00     0  00:30              1.00
  XR-Pump-4            PUMP        95.00     0  00:30              1.00
  
  
  ***************************
  Flow Classification Summary
  ***************************
  
  -------------------------------------------------------------------------------------
                      Adjusted    ---------- Fraction of Time in Flow Class ---------- 
                       /Actual         Up    Down  Sub   Sup   Up    Down  Norm  Inlet 
  Conduit               Length    Dry  Dry   Dry   Crit  Crit  Crit  Crit  Ltd   Ctrl  
  -------------------------------------------------------------------------------------
  WS02003066WSF200        1.00   0.05  0.01  0.00  0.00  0.93  0.00  0.00  0.77  0.00
  WS02006287WS02006284    1.00   0.04  0.02  0.00  0.72  0.22  0.00  0.00  0.81  0.00
  WS02006284WS02006280    1.00   0.05  0.00  0.00  0.00  0.00  0.00  0.95  0.00  0.00
  WS02006280WS02006229    1.00   0.05  0.00  0.00  0.00  0.00  0.00  0.95  0.00  0.00
  WS02006229WS02006228    1.00   0.00  0.00  0.00  0.98  0.00  0.00  0.01  0.00  0.00
  WS02006256WS02006235    1.00   0.00  0.00  0.00  1.00  0.00  0.00  0.00  0.00  0.00
  WS02006253WS02006251    1.00   0.03  0.01  0.00  0.95  0.00  0.00  0.00  0.00  0.00
  WS02006252WS02006251    1.00   0.11  0.00  0.00  0.00  0.00  0.89  0.00  0.00  0.00
  WS02006251WS02006249    1.00   0.00  0.00  0.00  1.00  0.00  0.00  0.00  0.35  0.00
  WS02006249WS02006248    1.00   0.00  0.02  0.00  0.86  0.00  0.12  0.00  0.00  0.00
  WS02006248WS02006247    1.00   0.03  0.00  0.00  0.97  0.00  0.00  0.00  0.25  0.00
  WS02006247WS02006245    1.00   0.02  0.00  0.00  0.97  0.00  0.00  0.01  0.00  0.00
  WS02006245WS02006243    1.00   0.01  0.00  0.00  0.92  0.00  0.00  0.06  0.05  0.00
  WS02006243WS02006242    1.00   0.01  0.00  0.00  0.99  0.00  0.00  0.00  0.29  0.00
  WS02006242WS02006240    1.00   0.00  0.00  0.00  1.00  0.00  0.00  0.00  0.00  0.00
  WS02006240WS02006239    1.00   0.00  0.00  0.00  0.95  0.00  0.00  0.05  0.01  0.00
  WS02006239WS02006238    1.00   0.00  0.00  0.00  1.00  0.00  0.00  0.00  0.00  0.00
  WS02006238WS02006235    1.00   0.00  0.00  0.00  1.00  0.00  0.00  0.00  0.00  0.00
  WS02006235WS02006234    1.00   0.00  0.00  0.00  0.94  0.00  0.06  0.00  0.00  0.00
  WS02006234WS02006232    1.00   0.00  0.00  0.00  1.00  0.00  0.00  0.00  0.05  0.00
  WS02006232WS02006231    1.00   0.00  0.00  0.00  0.99  0.00  0.01  0.00  0.00  0.00
  WS02006231WS02006230    1.00   0.00  0.00  0.00  0.48  0.00  0.51  0.00  0.00  0.00
  WS02006230WS02006229    1.00   0.00  0.00  0.00  0.98  0.00  0.00  0.02  0.01  0.00
  WS02006228WS02006109    1.00   0.00  0.00  0.00  1.00  0.00  0.00  0.00  0.00  0.00
  WS02006116WS02004401    1.00   0.03  0.00  0.00  0.97  0.00  0.00  0.00  0.00  0.00
  WS02006115WS02006116    1.00   0.03  0.00  0.00  0.97  0.00  0.00  0.01  0.00  0.00
  WS02006113WS02006111    1.00   0.02  0.00  0.00  0.00  0.98  0.00  0.00  0.14  0.00
  WS02006112WS02006115    1.00   0.02  0.00  0.00  0.97  0.00  0.00  0.00  0.00  0.00
  WS02006111WS02006112    1.00   0.02  0.00  0.00  0.97  0.00  0.00  0.00  0.98  0.00
  WS02006110WS02006113    1.00   0.01  0.01  0.00  0.98  0.00  0.00  0.00  0.00  0.00
  WS02006109WS02006110    1.00   0.00  0.01  0.00  0.98  0.00  0.01  0.00  0.00  0.00
  WS02004411WS02004412    1.00   0.04  0.00  0.00  0.96  0.00  0.00  0.00  0.00  0.00
  WS02004401WS02004402    1.00   0.03  0.00  0.00  0.97  0.00  0.00  0.00  0.00  0.00
  WS02004413WS02003067    1.00   0.04  0.02  0.00  0.00  0.00  0.94  0.00  0.00  0.00
  WS02004412WS02004413    1.00   0.04  0.00  0.00  0.96  0.00  0.00  0.00  0.03  0.00
  WS02004410WS02004411    1.00   0.04  0.00  0.00  0.96  0.00  0.00  0.00  0.03  0.00
  WS02004409WS02004410    1.00   0.04  0.00  0.00  0.96  0.00  0.00  0.00  0.03  0.00
  WS02004407WS02004409    1.00   0.04  0.00  0.00  0.96  0.00  0.00  0.00  0.89  0.00
  WS02004406WS02004407    1.00   0.00  0.04  0.00  0.96  0.00  0.00  0.00  0.00  0.00
  WS02004405WS02004406    1.00   0.00  0.00  0.00  1.00  0.00  0.00  0.00  0.00  0.00
  WS02004404WS02004405    1.00   0.00  0.00  0.00  1.00  0.00  0.00  0.00  0.00  0.00
  WS02004403WS02004404    1.00   0.00  0.03  0.00  0.97  0.00  0.00  0.00  0.01  0.00
  WS02004402WS02004403    1.00   0.03  0.00  0.00  0.97  0.00  0.00  0.00  0.00  0.00
  WS02004139WS02001211    1.00   0.00  0.00  0.00  0.99  0.00  0.01  0.00  0.00  0.00
  WS02004138WS02004139    1.00   0.00  0.00  0.00  0.99  0.01  0.00  0.00  1.00  0.00
  WS02003067WS02003066    1.00   0.06  0.00  0.00  0.94  0.00  0.00  0.00  0.00  0.00
  WS02001213WS02003059    1.00   0.00  0.01  0.00  0.99  0.00  0.00  0.00  0.00  0.00
  WS02001212WS02001213    1.00   0.01  0.00  0.00  0.78  0.00  0.21  0.00  0.00  0.00
  WS02001211WS02001212    1.00   0.00  0.01  0.00  0.99  0.00  0.00  0.00  0.00  0.00
  WS02003072WS02003073    1.00   0.00  0.00  0.00  0.00  0.00  0.00  1.00  0.00  0.00
  WS02003069WS02003072    1.00   0.00  0.00  0.00  0.99  0.01  0.00  0.00  0.32  0.00
  WS02003060WS02003069    1.00   0.00  0.00  0.00  0.99  0.01  0.00  0.00  0.15  0.00
  WS02003059WS02003060    1.00   0.00  0.00  0.00  1.00  0.00  0.00  0.00  0.02  0.00
  HS02004901HS02004770    1.00   0.05  0.00  0.00  0.95  0.00  0.00  0.00  0.03  0.00
  HS02004876HS02004881    1.00   0.03  0.00  0.00  0.97  0.00  0.00  0.00  0.00  0.00
  HS02004870HS02004876    1.00   0.01  0.00  0.00  0.99  0.00  0.00  0.00  0.95  0.00
  HS02004842HS02004848    1.00   0.00  0.05  0.00  0.95  0.00  0.00  0.00  0.71  0.00
  HS02004837HS02004842    1.00   0.00  0.00  0.00  0.99  0.01  0.00  0.00  0.11  0.00
  HS02004830HS02004837    1.00   0.00  0.00  0.00  1.00  0.00  0.00  0.00  0.99  0.00
  HS02004824HS02004830    1.00   0.00  0.00  0.00  1.00  0.00  0.00  0.00  0.00  0.00
  HS02004817HS02004824    1.00   0.00  0.00  0.00  1.00  0.00  0.00  0.00  1.00  0.00
  HS02004770HS02004777    1.00   0.00  0.05  0.00  0.95  0.00  0.00  0.00  0.08  0.00
  HS02004799HS02004480    1.00   0.00  0.03  0.00  0.94  0.00  0.03  0.00  0.00  0.00
  HS02004792HS02004799    1.00   0.00  0.00  0.00  0.98  0.02  0.00  0.00  0.98  0.00
  HS02004788HS02004792    1.00   0.00  0.00  0.00  0.99  0.01  0.00  0.00  0.98  0.00
  HS02004785HS02004788    1.00   0.00  0.00  0.00  1.00  0.00  0.00  0.00  0.00  0.00
  HS02004777HS02004785    1.00   0.00  0.00  0.00  1.00  0.00  0.00  0.00  0.22  0.00
  HS02004480HS02004478    1.00   0.05  0.00  0.00  0.74  0.00  0.00  0.20  0.00  0.00
  HS02004479HS02004480    1.00   0.03  0.00  0.00  0.97  0.00  0.00  0.00  0.16  0.00
  HS02004862HS02004870    1.00   0.00  0.00  0.00  1.00  0.00  0.00  0.00  0.05  0.00
  HS02004848HS02004852    1.00   0.05  0.00  0.00  0.95  0.00  0.00  0.00  0.69  0.00
  HS02004856HS02004862    1.00   0.00  0.08  0.00  0.92  0.00  0.00  0.00  0.73  0.00
  HS02004852HS02004856    1.00   0.05  0.01  0.00  0.94  0.00  0.00  0.00  0.82  0.00
  HS02004802HS02004478    1.00   0.05  0.01  0.00  0.94  0.00  0.00  0.00  0.00  0.00
  HS02004478WS02006287    1.00   0.06  0.00  0.00  0.94  0.00  0.00  0.00  0.81  0.00
  HS02004817HS02004807    1.00   0.00  0.05  0.00  0.95  0.00  0.00  0.00  0.00  0.00
  HS02004807HS02004802    1.00   0.05  0.00  0.00  0.95  0.00  0.00  0.00  0.01  0.00
  YS02001759YS02001757    1.00   0.00  0.00  0.00  1.00  0.00  0.00  0.00  0.17  0.00
  YS02001762YS02001759    1.00   0.00  0.00  0.00  1.00  0.00  0.00  0.00  0.05  0.00
  YS02001765YS02001762    1.00   0.00  0.00  0.00  1.00  0.00  0.00  0.00  0.24  0.00
  YS02001770YS02001767    1.00   0.00  0.00  0.00  1.00  0.00  0.00  0.00  0.00  0.00
  YS02001774YS02001770    1.00   0.00  0.06  0.00  0.94  0.00  0.00  0.00  0.06  0.00
  YS02001779YS02001774    1.00   0.00  0.00  0.00  1.00  0.00  0.00  0.00  0.28  0.00
  YS02001649YS02001757    1.00   0.00  0.00  0.00  1.00  0.00  0.00  0.00  0.20  0.00
  YS02001767YS02001765    1.00   0.00  0.00  0.00  1.00  0.00  0.00  0.00  0.01  0.00
  YS02006561YS02001783    1.00   0.08  0.00  0.00  0.00  0.92  0.00  0.00  0.72  0.00
  YS02001783YS02001784    1.00   0.00  0.08  0.00  0.92  0.00  0.00  0.00  0.14  0.00
  YS02001784YS02001785    1.00   0.00  0.00  0.00  1.00  0.00  0.00  0.00  0.26  0.00
  YS02001788YS02001790    1.00   0.00  0.00  0.00  0.08  0.92  0.00  0.00  0.99  0.00
  YS02001790YS02001791    1.00   0.00  0.00  0.00  0.02  0.98  0.00  0.00  0.32  0.00
  YS02001791YS02001793    1.00   0.00  0.00  0.00  0.00  1.00  0.00  0.00  0.00  0.00
  YS02001910YS02001907    1.00   0.00  0.00  0.00  0.97  0.00  0.00  0.03  0.13  0.00
  YS02001786YS02001788    1.00   0.00  0.00  0.00  0.14  0.86  0.00  0.00  0.00  0.00
  YS02001915YS02001910    1.00   0.00  0.00  0.00  0.99  0.01  0.00  0.00  0.25  0.00
  YS02001918YS02001915    1.00   0.00  0.01  0.00  0.98  0.02  0.00  0.00  0.80  0.00
  YS02001923YS02001920    1.00   0.00  0.00  0.00  1.00  0.00  0.00  0.00  1.00  0.00
  YS02001926YS02001923    1.00   0.00  0.04  0.00  0.00  0.00  0.96  0.00  0.00  0.00
  YS02001929YS02001926    1.00   0.00  0.05  0.00  0.95  0.00  0.00  0.00  0.86  0.00
  YS02001920YS02001918    1.00   0.00  0.01  0.00  0.99  0.00  0.00  0.00  0.00  0.00
  YS02001629YS02163301    1.00   0.07  0.00  0.00  0.93  0.00  0.00  0.00  0.00  0.00
  YS02001619YS02001622    1.00   0.05  0.00  0.00  0.95  0.00  0.00  0.00  0.00  0.00
  YS02001622YS02001625    1.00   0.05  0.00  0.00  0.95  0.00  0.00  0.00  0.14  0.00
  YS02001625YS02001629    1.00   0.05  0.03  0.00  0.89  0.00  0.03  0.00  0.00  0.00
  YS02163301YS02001633    1.00   0.00  0.07  0.00  0.93  0.00  0.00  0.00  0.00  0.00
  YS02163601YS02164001    1.00   0.00  0.04  0.00  0.96  0.00  0.00  0.00  0.00  0.00
  YS02164001YS02001641    1.00   0.01  0.03  0.00  0.96  0.00  0.00  0.00  0.07  0.00
  YS02001641YS02001644    1.00   0.00  0.01  0.00  0.99  0.00  0.00  0.00  0.00  0.00
  YS02001647YS02001649    1.00   0.00  0.08  0.00  0.92  0.00  0.00  0.00  0.01  0.00
  YS02006553YS02006556    1.00   0.02  0.00  0.00  0.98  0.00  0.00  0.00  0.03  0.00
  YS02006556YS02006558    1.00   0.00  0.00  0.00  1.00  0.00  0.00  0.00  0.00  0.00
  YSB6556YSB1171          1.00   0.03  0.02  0.00  0.95  0.00  0.00  0.00  0.00  0.00
  YS02001907YS02006553    1.00   0.00  0.02  0.00  0.97  0.00  0.00  0.00  0.00  0.00
  YS02006558YS02006561    1.00   0.08  0.00  0.00  0.00  0.92  0.00  0.00  0.71  0.00
  YS02001633YS02163601    1.00   0.00  0.01  0.00  0.99  0.00  0.00  0.00  0.20  0.00
  YS02001644YS02001647    1.00   0.00  0.08  0.00  0.92  0.00  0.00  0.00  0.00  0.00
  YS02001745YS02001748    1.00   0.00  0.00  0.00  0.00  0.00  0.00  1.00  0.00  0.00
  YS02001748YS02001751    1.00   0.00  0.00  0.00  0.96  0.04  0.00  0.00  0.91  0.00
  YS02001751YS02001754    1.00   0.00  0.00  0.00  0.91  0.00  0.00  0.08  0.03  0.00
  YS02001754YS02001757    1.00   0.00  0.00  0.00  0.99  0.01  0.00  0.00  0.28  0.00
  YS02001882YS02001884    1.00   0.07  0.00  0.00  0.93  0.00  0.00  0.00  0.00  0.00
  YS02001884YS02001887    1.00   0.04  0.01  0.00  0.95  0.00  0.00  0.00  0.00  0.00
  YS02001890YS02001895    1.00   0.00  0.07  0.00  0.93  0.00  0.00  0.00  0.00  0.00
  YS02001895YS02001898    1.00   0.07  0.00  0.00  0.92  0.00  0.01  0.00  0.00  0.00
  YS02001898YS02001901    1.00   0.07  0.01  0.00  0.93  0.00  0.00  0.00  0.02  0.00
  YS02001901YS02001904    1.00   0.07  0.00  0.00  0.93  0.00  0.00  0.00  0.00  0.00
  YS02001904YS02001907    1.00   0.00  0.07  0.00  0.93  0.00  0.00  0.00  0.00  0.00
  YS02001887YS02001890    1.00   0.00  0.00  0.00  0.97  0.00  0.03  0.00  0.00  0.00
  YS02001652YS02001649    1.00   0.00  0.00  0.00  1.00  0.00  0.00  0.00  0.27  0.00
  YS02001655YS02001652    1.00   0.00  0.00  0.00  0.92  0.00  0.00  0.08  0.03  0.00
  YS02001658YS02001655    1.00   0.00  0.06  0.00  0.90  0.04  0.00  0.00  0.78  0.00
  YS02001661YS02001658    1.00   0.06  0.00  0.00  0.00  0.94  0.00  0.00  0.72  0.00
  YS02001664YS02001661    1.00   0.05  0.00  0.00  0.95  0.00  0.00  0.00  0.86  0.00
  YSB1154YSB6556          1.00   0.05  0.00  0.00  0.95  0.00  0.00  0.00  0.02  0.00
  YSB1174YSB1171          1.00   0.03  0.01  0.00  0.96  0.00  0.00  0.00  0.00  0.00
  YSB1171HS02004479       1.00   0.03  0.00  0.00  0.97  0.00  0.00  0.00  0.13  0.00
  HS02004881HS02006253    1.00   0.03  0.00  0.00  0.72  0.01  0.00  0.23  0.49  0.00
  YS02001793JiankangQianchi    1.00   0.00  0.00  0.00  0.02  0.97  0.00  0.00  0.04  0.00
  YS02001757CaochengTiaoxuchi    1.00   0.00  0.11  0.00  0.89  0.00  0.00  0.00  0.00  0.00
  WSF200WS02003060        1.00   0.00  0.05  0.00  0.72  0.23  0.00  0.00  0.52  0.00
  1                       1.00   0.00  0.00  0.00  0.00  1.00  0.00  0.00  0.40  0.00
  2                       1.00   0.71  0.00  0.00  0.00  0.29  0.00  0.00  0.07  0.00
  3                       1.00   0.33  0.00  0.00  0.00  0.67  0.00  0.00  0.31  0.00
  4                       1.00   1.00  0.00  0.00  0.00  0.00  0.00  0.00  0.00  0.00
  
  
  *************************
  Conduit Surcharge Summary
  *************************
  
  ----------------------------------------------------------------------------
                                                           Hours        Hours 
                         --------- Hours Full --------   Above Full   Capacity
  Conduit                Both Ends  Upstream  Dnstream   Normal Flow   Limited
  ----------------------------------------------------------------------------
  WS02006229WS02006228        0.98      1.09      0.98      3.06         0.98
  WS02006256WS02006235        5.51      5.52      7.68      2.33         0.01
  WS02006252WS02006251        0.61      0.61      1.77      1.36         0.01
  WS02006251WS02006249        0.01      0.01      0.01      0.61         0.01
  WS02006249WS02006248        0.01      0.01      0.01      3.26         0.01
  WS02006247WS02006245        0.01      0.01      0.01      4.04         0.01
  WS02006245WS02006243        0.01      0.01      0.01      0.01         0.01
  WS02006243WS02006242        0.01      0.01      0.57      0.01         0.01
  WS02006242WS02006240        0.01      0.01      0.82      1.82         0.01
  WS02006240WS02006239        0.14      0.14      0.19      0.02         0.01
  WS02006239WS02006238        0.72      0.72      0.81      0.03         0.01
  WS02006238WS02006235        0.71      0.71      1.06      0.01         0.01
  WS02006235WS02006234        0.01      0.01      0.52      5.38         0.01
  WS02006234WS02006232        0.16      0.16      1.24      0.01         0.01
  WS02006232WS02006231        0.01      0.01      1.24      0.01         0.01
  WS02006231WS02006230        0.01      0.01      0.01      5.58         0.01
  WS02006230WS02006229        1.90      2.70      1.90      5.67         1.90
  WS02006228WS02006109        1.04      1.59      1.04      4.27         1.04
  WS02006111WS02006112        0.01      0.01      3.32      0.01         0.01
  WS02006110WS02006113        0.01      0.01      1.27      0.01         0.01
  WS02006109WS02006110        0.01      0.01      1.59      0.01         0.01
  WS02004404WS02004405        0.01      0.01      0.01      5.42         0.01
  WS02003072WS02003073        0.01      0.01      0.01      4.20         0.01
  YS02001793JiankangQianchi        0.01      0.01      0.09      0.01         0.01
  
  
  ***************
  Pumping Summary
  ***************
  
  ---------------------------------------------------------------------------------------------------------
                                                  Min       Avg       Max     Total     Power    % Time Off
                        Percent   Number of      Flow      Flow      Flow    Volume     Usage    Pump Curve
  Pump                 Utilized   Start-Ups       LPS       LPS       LPS  10^6 ltr     Kw-hr    Low   High
  ---------------------------------------------------------------------------------------------------------
  CC-Pump-1               59.10           4      0.00    129.34    200.00     2.054      9.30    0.0  100.0
  CC-Pump-2               54.83           6      0.00    118.88    200.00     1.783      8.12    0.0  100.0
  JK-Pump-1               91.48           3      0.00     77.68    163.14     1.427     27.84    0.0    0.0
  JK-Pump-2               87.23           5      0.00     89.60    300.00     1.627     31.10    0.0    0.0
  XR-Pump-1               89.36           6      0.00     70.01     95.00     1.767     25.74    0.0    0.0
  XR-Pump-2               78.70           7      0.00     72.71     95.00     1.510     22.51    0.0    0.0
  XR-Pump-3               78.71           5      0.00     59.73     95.00     1.368     19.64    0.0    0.0
  XR-Pump-4               93.61           3      0.00     70.38     95.00     1.966     29.16    0.0    0.0
  

  Analysis begun on:  Tue Dec 21 13:24:32 2021
  Analysis ended on:  Tue Dec 21 13:24:35 2021
  Total elapsed time: 00:00:03