
  EPA STORM WATER MANAGEMENT MODEL - VERSION 5.1 (Build 5.3.0.dev0)
  --------------------------------------------------------------

  WARNING 04: minimum elevation drop used for Conduit WS02004404WS02004405
  WARNING 03: negative offset ignored for Link YS02001904YS02001907
  
  *********************************************************
  NOTE: The summary statistics displayed in this report are
  based on results found at every computational time step,  
  not just on results from each reporting time step.
  *********************************************************
  
  ****************
  Analysis Options
  ****************
  Flow Units ............... LPS
  Process Models:
    Rainfall/Runoff ........ YES
    RDII ................... NO
    Snowmelt ............... NO
    Groundwater ............ NO
    Flow Routing ........... YES
    Ponding Allowed ........ NO
    Water Quality .......... NO
  Infiltration Method ...... HORTON
  Flow Routing Method ...... DYNWAVE
  Surcharge Method ......... EXTRAN
  Starting Date ............ 08/28/2015 08:00:00
  Ending Date .............. 08/28/2015 15:50:00
  Antecedent Dry Days ...... 8.0
  Report Time Step ......... 00:01:00
  Wet Time Step ............ 00:01:00
  Dry Time Step ............ 00:01:00
  Routing Time Step ........ 5.00 sec
  Variable Time Step ....... YES
  Maximum Trials ........... 8
  Number of Threads ........ 4
  Head Tolerance ........... 0.001500 m
  
  
  **************************        Volume         Depth
  Runoff Quantity Continuity     hectare-m            mm
  **************************     ---------       -------
  Total Precipitation ......         1.913         4.188
  Evaporation Loss .........         0.000         0.000
  Infiltration Loss ........         0.472         1.033
  Surface Runoff ...........         0.641         1.403
  Final Storage ............         0.800         1.752
  Continuity Error (%) .....        -0.017
  
  
  **************************        Volume        Volume
  Flow Routing Continuity        hectare-m      10^6 ltr
  **************************     ---------     ---------
  Dry Weather Inflow .......         0.616         6.165
  Wet Weather Inflow .......         0.641         6.405
  Groundwater Inflow .......         0.000         0.000
  RDII Inflow ..............         0.000         0.000
  External Inflow ..........         0.102         1.024
  External Outflow .........         1.540        15.403
  Flooding Loss ............         0.000         0.000
  Evaporation Loss .........         0.000         0.000
  Exfiltration Loss ........         0.000         0.000
  Initial Stored Volume ....         0.076         0.761
  Final Stored Volume ......         0.129         1.286
  Continuity Error (%) .....       -16.264
  
  
  *************************
  Highest Continuity Errors
  *************************
  Node JK-storage (-53.47%)
  Node HS02004842 (36.86%)
  Node YS02001884 (31.01%)
  Node YS02001774 (16.21%)
  Node YSB1171 (10.57%)
  
  
  ***************************
  Time-Step Critical Elements
  ***************************
  Link WS02006252WS02006251 (74.01%)
  Link 3 (16.72%)
  Link WS02006238WS02006235 (2.82%)
  Link WS02006280WS02006229 (2.21%)
  
  
  ********************************
  Highest Flow Instability Indexes
  ********************************
  Link WS02006113WS02006111 (46)
  Link WS02006111WS02006112 (23)
  Link YS02001754YS02001757 (3)
  Link YS02001751YS02001754 (3)
  Link YS02001767YS02001765 (3)
  
  
  *************************
  Routing Time Step Summary
  *************************
  Minimum Time Step           :     0.28 sec
  Average Time Step           :     0.95 sec
  Maximum Time Step           :     5.00 sec
  Percent in Steady State     :    -0.00
  Average Iterations per Step :     2.02
  Percent Not Converging      :     0.02
  
  
  ***************************
  Subcatchment Runoff Summary
  ***************************
  
  ------------------------------------------------------------------------------------------------------------------------------
                            Total      Total      Total      Total     Imperv       Perv      Total       Total     Peak  Runoff
                           Precip      Runon       Evap      Infil     Runoff     Runoff     Runoff      Runoff   Runoff   Coeff
  Subcatchment                 mm         mm         mm         mm         mm         mm         mm    10^6 ltr      LPS
  ------------------------------------------------------------------------------------------------------------------------------
  sub0                       4.19       0.00       0.00       0.29       2.63       0.00       2.63        0.00     0.86   0.628
  sub1                       4.19       0.00       0.00       0.46       2.47       0.00       2.47        0.02     4.27   0.591
  sub2                       4.19       0.00       0.00       1.55       1.74       0.00       1.74        0.02     3.73   0.414
  sub3                       4.19       0.00       0.00       1.55       1.70       0.00       1.70        0.04     7.55   0.407
  sub4                       4.19       0.00       0.00       0.46       2.35       0.00       2.35        0.05     8.35   0.561
  sub5                       4.19       0.00       0.00       0.29       2.59       0.00       2.59        0.03     7.60   0.617
  sub7                       4.19       0.00       0.00       0.38       2.56       0.00       2.56        0.01     2.74   0.611
  sub8                       4.19       0.00       0.00       0.38       2.55       0.00       2.55        0.02     4.79   0.609
  sub9                       4.19       0.00       0.00       0.38       2.55       0.00       2.55        0.01     3.55   0.608
  sub10                      4.19       0.00       0.00       0.34       2.56       0.00       2.56        0.03     7.61   0.612
  sub11                      4.19       0.00       0.00       0.34       2.58       0.00       2.58        0.03     9.04   0.616
  sub12                      4.19       0.00       0.00       0.54       2.46       0.00       2.46        0.02     7.83   0.586
  sub14                      4.19       0.00       0.00       0.38       2.54       0.00       2.54        0.02     6.92   0.608
  sub15                      4.19       0.00       0.00       1.26       1.95       0.00       1.95        0.03     9.37   0.467
  sub16                      4.19       0.00       0.00       1.38       1.89       0.00       1.89        0.02     6.84   0.451
  sub17                      4.19       0.00       0.00       1.34       1.91       0.00       1.91        0.02     5.50   0.457
  sub22                      4.19       0.00       0.00       1.80       1.60       0.00       1.60        0.10    31.00   0.382
  sub23                      4.19       0.00       0.00       1.55       1.77       0.00       1.77        0.08    26.47   0.422
  sub60                      4.19       0.00       0.00       0.50       1.53       0.00       1.53        0.46    38.61   0.365
  sub61                      4.19       0.00       0.00       0.71       1.69       0.00       1.69        0.52    49.57   0.403
  sub62                      4.19       0.00       0.00       0.34       1.79       0.00       1.79        0.55    50.32   0.428
  sub63                      4.19       0.00       0.00       1.21       1.52       0.00       1.52        0.46    46.71   0.363
  sub64                      4.19       0.00       0.00       0.63       1.46       0.00       1.46        0.44    36.61   0.348
  sub65                      4.19       0.00       0.00       0.54       1.47       0.00       1.47        0.45    37.08   0.351
  sub66                      4.19       0.00       0.00       1.21       1.28       0.00       1.28        0.39    33.80   0.307
  sub67                      4.19       0.00       0.00       0.34       2.02       0.00       2.02        0.62    66.03   0.483
  sub68                      4.19       0.00       0.00       0.59       1.81       0.00       1.81        0.56    55.14   0.432
  sub69                      4.19       0.00       0.00       0.63       2.01       0.00       2.01        0.47    56.20   0.479
  sub70                      4.19       2.05       0.00       2.12       2.30       0.00       2.30        0.53    40.91   0.370
  sub71                      4.19       0.00       0.00       0.34       1.69       0.00       1.69        0.40    34.83   0.405
  sub72                      4.19       0.00       0.00       0.29       1.12       0.00       1.12        0.23    15.77   0.268
  sub73                      4.19       2.24       0.00       2.19       2.24       0.00       2.24        0.53    34.82   0.348
  sub74                      4.19       0.00       0.00       3.14       0.61       0.00       0.61        0.24    31.66   0.146
  
  
  ******************
  Node Depth Summary
  ******************
  
  ---------------------------------------------------------------------------------
                                 Average  Maximum  Maximum  Time of Max    Reported
                                   Depth    Depth      HGL   Occurrence   Max Depth
  Node                 Type       Meters   Meters   Meters  days hr:min      Meters
  ---------------------------------------------------------------------------------
  WS02001211           JUNCTION     0.67     0.77     5.61     0  05:10        0.77
  WS02001212           JUNCTION     0.39     0.48     5.54     0  05:10        0.48
  WS02001213           JUNCTION     0.62     0.72     5.48     0  05:11        0.72
  WS02003069           JUNCTION     0.43     0.52     5.10     0  03:33        0.52
  WS02003072           JUNCTION     0.49     0.58     4.95     0  03:34        0.58
  WS02003073           JUNCTION     0.29     0.35     4.42     0  03:35        0.35
  WS02003060           JUNCTION     0.38     0.46     5.39     0  03:33        0.46
  WS02003066           JUNCTION     0.22     0.28     5.83     0  02:52        0.28
  WS02003059           JUNCTION     0.67     0.77     5.46     0  05:11        0.77
  WS02003067           JUNCTION     0.55     0.67     5.99     0  02:51        0.67
  WS02004401           JUNCTION     0.64     0.79     6.79     0  02:47        0.79
  WS02004402           JUNCTION     0.67     0.82     6.78     0  02:47        0.82
  WS02004403           JUNCTION     0.69     0.84     6.77     0  02:48        0.84
  WS02004404           JUNCTION     0.77     0.91     6.76     0  02:48        0.91
  WS02004406           JUNCTION     0.78     0.91     6.74     0  02:48        0.91
  WS02004409           JUNCTION     0.46     0.60     6.37     0  02:50        0.60
  WS02004410           JUNCTION     0.48     0.62     6.34     0  02:50        0.62
  WS02004411           JUNCTION     0.49     0.63     6.31     0  02:51        0.63
  WS02004412           JUNCTION     0.51     0.65     6.29     0  02:51        0.65
  WS02004413           JUNCTION     0.67     0.81     6.28     0  02:51        0.81
  WS02004405           JUNCTION     0.76     0.91     6.76     0  02:48        0.91
  WS02006109           JUNCTION     0.71     0.90     7.51     0  02:43        0.89
  WS02006110           JUNCTION     0.71     0.87     7.46     0  02:43        0.87
  WS02006111           JUNCTION     0.20     0.27     6.98     0  02:44        0.27
  WS02006112           JUNCTION     0.80     0.97     6.86     0  02:46        0.97
  WS02006113           JUNCTION     0.32     0.42     7.31     0  02:43        0.42
  WS02006115           JUNCTION     0.53     0.68     6.82     0  02:47        0.68
  WS02006116           JUNCTION     0.61     0.76     6.80     0  02:47        0.76
  WS02006230           JUNCTION     0.67     0.93     7.67     0  02:43        0.92
  WS02006231           JUNCTION     0.44     0.62     7.74     0  02:43        0.62
  WS02006232           JUNCTION     0.58     0.76     7.80     0  02:42        0.76
  WS02006234           JUNCTION     0.50     0.71     7.86     0  02:42        0.71
  WS02006235           JUNCTION     0.53     0.74     7.91     0  02:42        0.74
  WS02006238           JUNCTION     0.56     0.77     7.92     0  02:42        0.77
  WS02006240           JUNCTION     0.45     0.70     7.99     0  02:42        0.69
  WS02006242           JUNCTION     0.50     0.76     8.03     0  02:42        0.76
  WS02006243           JUNCTION     0.39     0.65     8.07     0  04:07        0.65
  WS02006245           JUNCTION     0.37     0.62     8.11     0  04:07        0.62
  WS02006247           JUNCTION     0.39     0.64     8.14     0  04:07        0.64
  WS02006248           JUNCTION     0.34     0.58     8.16     0  04:08        0.58
  WS02006249           JUNCTION     0.38     0.60     8.19     0  04:08        0.60
  WS02006239           JUNCTION     0.51     0.74     7.95     0  02:42        0.74
  WS02006251           JUNCTION     0.37     0.62     8.29     0  04:08        0.62
  WS02006252           JUNCTION     0.33     0.58     8.83     0  04:00        0.58
  WS02006253           JUNCTION     0.39     0.64     8.29     0  04:09        0.64
  WS02006256           JUNCTION     0.97     1.15     8.08     0  00:00        1.14
  WS02004138           JUNCTION     0.16     0.19     7.44     0  01:40        0.19
  WS02004407           JUNCTION     0.21     0.27     6.59     0  02:48        0.27
  WS02006228           JUNCTION     0.70     0.92     7.57     0  02:43        0.92
  WS02006229           JUNCTION     0.67     0.91     7.60     0  02:43        0.90
  WS02006280           JUNCTION     0.05     0.11     8.38     0  02:22        0.11
  WS02006284           JUNCTION     0.34     0.44     8.83     0  02:22        0.44
  WS02006287           JUNCTION     0.07     0.16     9.12     0  02:22        0.16
  WSF200               JUNCTION     0.20     0.28     5.51     0  02:51        0.28
  HS02004901           JUNCTION     0.10     0.19    10.01     0  02:20        0.19
  HS02004881           JUNCTION     0.00     0.02     9.05     0  02:21        0.02
  HS02004876           JUNCTION     0.03     0.09     9.12     0  02:21        0.09
  HS02004870           JUNCTION     0.01     0.03     9.32     0  02:21        0.03
  HS02004862           JUNCTION     0.01     0.03     9.42     0  02:23        0.03
  HS02004856           JUNCTION     0.07     0.09     9.52     0  02:22        0.09
  HS02004852           JUNCTION     0.00     0.02     9.53     0  02:23        0.02
  HS02004848           JUNCTION     0.00     0.02     9.62     0  02:20        0.02
  HS02004842           JUNCTION     0.32     0.35     9.62     0  02:19        0.35
  HS02004837           JUNCTION     0.02     0.04     9.62     0  02:20        0.04
  HS02004830           JUNCTION     0.03     0.05     9.52     0  02:20        0.05
  HS02004824           JUNCTION     0.02     0.03     9.43     0  02:23        0.03
  HS02004817           JUNCTION     0.41     0.49     9.34     0  02:22        0.49
  HS02004807           JUNCTION     0.10     0.16     9.33     0  02:22        0.16
  HS02004802           JUNCTION     0.14     0.20     9.33     0  02:22        0.20
  HS02004799           JUNCTION     0.09     0.20     9.41     0  02:21        0.20
  HS02004792           JUNCTION     0.02     0.07     9.59     0  02:20        0.07
  HS02004788           JUNCTION     0.02     0.05     9.95     0  02:21        0.05
  HS02004785           JUNCTION     0.03     0.10    10.00     0  02:21        0.10
  HS02004777           JUNCTION     0.12     0.21    10.01     0  02:21        0.21
  HS02004770           JUNCTION     0.09     0.18    10.01     0  02:21        0.18
  HS02004480           JUNCTION     0.05     0.15     9.39     0  02:21        0.15
  HS02004479           JUNCTION     0.09     0.19     9.39     0  02:21        0.19
  HS02004478           JUNCTION     0.04     0.09     9.32     0  02:22        0.09
  YS02001745           JUNCTION     0.06     0.09     7.60     0  03:01        0.09
  YS02001748           JUNCTION     0.07     0.13     7.20     0  03:04        0.12
  YS02001751           JUNCTION     0.20     0.33     7.21     0  03:09        0.33
  YS02001754           JUNCTION     0.45     0.62     7.22     0  03:18        0.61
  YS02001762           JUNCTION     0.64     0.81     7.21     0  03:07        0.80
  YS02001765           JUNCTION     0.59     0.76     7.21     0  03:06        0.76
  YS02001767           JUNCTION     0.56     0.72     7.21     0  03:06        0.72
  YS02001770           JUNCTION     0.55     0.71     7.20     0  03:06        0.71
  YS02001774           JUNCTION     0.62     0.78     7.20     0  03:07        0.78
  YS02001779           JUNCTION     0.37     0.52     7.21     0  03:07        0.52
  YS02001882           JUNCTION     0.23     0.33     7.04     0  02:54        0.33
  YS02001884           JUNCTION     0.32     0.43     7.04     0  02:55        0.43
  YS02001759           JUNCTION     0.67     0.84     7.21     0  03:05        0.84
  YS02001887           JUNCTION     0.40     0.51     7.04     0  02:55        0.51
  YS02001890           JUNCTION     0.43     0.54     7.04     0  02:54        0.54
  YS02001898           JUNCTION     0.20     0.29     7.03     0  02:56        0.29
  YS02001901           JUNCTION     0.32     0.42     7.03     0  02:56        0.42
  YS02001904           JUNCTION     0.29     0.40     7.03     0  02:55        0.40
  YS02001907           JUNCTION     0.62     0.74     7.03     0  02:56        0.74
  YS02001910           JUNCTION     0.41     0.52     7.03     0  02:56        0.52
  YS02001915           JUNCTION     0.21     0.31     7.03     0  02:57        0.31
  YS02001918           JUNCTION     0.06     0.07     7.14     0  03:04        0.07
  YS02001619           JUNCTION     0.16     0.28     7.21     0  03:03        0.28
  YS02001629           JUNCTION     0.50     0.66     7.21     0  03:07        0.66
  YS02001641           JUNCTION     0.61     0.77     7.21     0  03:05        0.77
  YS02001644           JUNCTION     0.61     0.77     7.21     0  03:06        0.77
  YS02001652           JUNCTION     0.46     0.61     7.21     0  03:08        0.61
  YS02001655           JUNCTION     0.23     0.36     7.21     0  03:06        0.36
  YS02001920           JUNCTION     0.15     0.17     7.17     0  03:03        0.17
  YS02001923           JUNCTION     0.05     0.06     7.32     0  03:02        0.06
  YS02001926           JUNCTION     0.11     0.13     7.58     0  03:02        0.13
  YS02001929           JUNCTION     0.05     0.06     7.76     0  03:01        0.06
  YS02001658           JUNCTION     0.06     0.10     7.24     0  02:47        0.10
  YS02001661           JUNCTION     0.13     0.16     7.57     0  02:47        0.16
  YS02001664           JUNCTION     0.05     0.08     8.01     0  02:46        0.08
  YS02001622           JUNCTION     0.18     0.30     7.21     0  03:03        0.30
  YS02001633           JUNCTION     0.59     0.75     7.21     0  03:07        0.75
  YS02001649           JUNCTION     0.65     0.82     7.21     0  03:05        0.81
  YS02001757           JUNCTION     0.77     0.95     7.21     0  03:08        0.95
  YS02001895           JUNCTION     0.19     0.29     7.04     0  02:55        0.29
  YS02001625           JUNCTION     0.46     0.60     7.21     0  03:04        0.60
  YS02163301           JUNCTION     0.53     0.69     7.21     0  03:07        0.69
  YS02163601           JUNCTION     0.65     0.81     7.21     0  03:06        0.81
  YS02164001           JUNCTION     0.59     0.75     7.21     0  03:05        0.75
  YS02001647           JUNCTION     0.44     0.60     7.21     0  03:05        0.60
  YSB1154              JUNCTION     0.23     0.33     9.39     0  02:21        0.33
  YSB6556              JUNCTION     0.12     0.22     9.39     0  02:21        0.22
  YSB1174              JUNCTION     0.18     0.28     9.39     0  02:21        0.28
  YSB1171              JUNCTION     0.38     0.49     9.39     0  02:21        0.49
  YS02006553           JUNCTION     0.63     0.74     7.03     0  02:56        0.74
  YS02006561           JUNCTION     0.11     0.16     6.82     0  02:57        0.16
  YS02006556           JUNCTION     0.60     0.71     7.03     0  02:57        0.71
  YS02006558           JUNCTION     0.64     0.76     7.03     0  02:57        0.76
  YS02001783           JUNCTION     0.18     0.28     6.42     0  02:57        0.28
  YS02001784           JUNCTION     0.22     0.31     6.38     0  02:56        0.31
  YS02001786           JUNCTION     0.18     0.27     6.30     0  02:57        0.27
  YS02001788           JUNCTION     0.13     0.19     6.17     0  02:57        0.19
  YS02001790           JUNCTION     0.16     0.24     5.88     0  02:58        0.24
  YS02001791           JUNCTION     0.11     0.16     5.63     0  02:56        0.16
  YS02001793           JUNCTION     0.07     0.10     4.94     0  02:54        0.10
  WS02004139           JUNCTION     0.61     0.72     5.63     0  05:10        0.72
  WSC                  OUTFALL      0.29     0.35     1.02     0  03:35        0.35
  3                    OUTFALL      0.05     0.13     6.13     0  02:44        0.13
  4                    OUTFALL      0.01     0.10     7.10     0  04:08        0.10
  5                    OUTFALL      0.00     0.00     5.00     0  00:00        0.00
  JK-storage           STORAGE      0.08     3.00     3.80     0  00:00        2.70
  CC-storage           STORAGE      0.02     0.10     7.10     0  03:55        0.10
  XR-storage           STORAGE      0.49     5.00     3.00     0  00:00        4.96
  
  
  *******************
  Node Inflow Summary
  *******************
  
  -------------------------------------------------------------------------------------------------
                                  Maximum  Maximum                  Lateral       Total        Flow
                                  Lateral    Total  Time of Max      Inflow      Inflow     Balance
                                   Inflow   Inflow   Occurrence      Volume      Volume       Error
  Node                 Type           LPS      LPS  days hr:min    10^6 ltr    10^6 ltr     Percent
  -------------------------------------------------------------------------------------------------
  WS02001211           JUNCTION      7.35   387.67     0  01:59       0.207        7.62       0.382
  WS02001212           JUNCTION      0.00   387.67     0  02:00           0        7.59       0.219
  WS02001213           JUNCTION      0.00   387.67     0  02:00           0        7.57       0.254
  WS02003069           JUNCTION      0.32   773.31     0  03:33     0.00902        14.1       0.160
  WS02003072           JUNCTION      0.00   772.94     0  03:33           0        14.1       0.210
  WS02003073           JUNCTION      1.82   774.57     0  03:34      0.0514        14.1       0.231
  WS02003060           JUNCTION     16.53   772.89     0  03:32       0.466        14.2       0.154
  WS02003066           JUNCTION      0.00   451.75     0  02:51           0        6.17       0.057
  WS02003059           JUNCTION      0.00   387.64     0  01:58           0        7.56       0.423
  WS02003067           JUNCTION      0.00   451.69     0  02:51           0        6.18       0.125
  WS02004401           JUNCTION      0.00   460.87     0  02:47           0        6.37       0.277
  WS02004402           JUNCTION      0.00   459.78     0  02:47           0        6.35       0.266
  WS02004403           JUNCTION      0.00   459.19     0  02:47           0        6.33       0.247
  WS02004404           JUNCTION      0.16   459.07     0  02:47     0.00457        6.32       0.192
  WS02004406           JUNCTION      0.00   458.78     0  02:48           0        6.29       0.469
  WS02004409           JUNCTION      0.00   458.42     0  02:48           0        6.26       0.190
  WS02004410           JUNCTION      0.00   455.61     0  02:49           0        6.25       0.223
  WS02004411           JUNCTION      0.00   453.74     0  02:50           0        6.23       0.236
  WS02004412           JUNCTION      0.00   452.56     0  02:50           0        6.22       0.264
  WS02004413           JUNCTION      0.00   452.04     0  02:51           0         6.2       0.405
  WS02004405           JUNCTION      0.04   458.97     0  02:48     0.00107        6.31       0.287
  WS02006109           JUNCTION      1.23   470.83     0  02:43      0.0347        6.45       0.269
  WS02006110           JUNCTION      0.00   470.88     0  02:43           0        6.43       0.250
  WS02006111           JUNCTION      0.00   484.97     0  02:43           0        6.41       0.047
  WS02006112           JUNCTION      5.50   476.37     0  02:44      0.0164        6.42       0.390
  WS02006113           JUNCTION      0.00   471.02     0  02:43           0        6.41       0.108
  WS02006115           JUNCTION      0.00   469.17     0  02:44           0         6.4       0.236
  WS02006116           JUNCTION      0.00   463.57     0  02:45           0        6.38       0.231
  WS02006230           JUNCTION     10.28   393.68     0  04:06        0.29        5.81       0.166
  WS02006231           JUNCTION      0.00   383.91     0  04:06           0        5.53       0.174
  WS02006232           JUNCTION      0.00   384.09     0  04:05           0        5.54       0.233
  WS02006234           JUNCTION      0.00   385.54     0  04:05           0        5.54       0.081
  WS02006235           JUNCTION      0.00   386.49     0  04:04           0        5.59       0.155
  WS02006238           JUNCTION      0.00   313.41     0  04:10           0         3.7       0.138
  WS02006240           JUNCTION      0.00   315.23     0  04:01           0        3.68       0.170
  WS02006242           JUNCTION      0.00   324.90     0  04:01           0        3.68       0.217
  WS02006243           JUNCTION      0.00   335.36     0  04:01           0        3.66      -0.353
  WS02006245           JUNCTION      0.00   342.37     0  04:01           0        3.66       0.214
  WS02006247           JUNCTION      0.00   348.82     0  04:01           0        3.66       0.107
  WS02006248           JUNCTION      0.00   354.64     0  04:00           0        3.66       0.001
  WS02006249           JUNCTION      0.00   407.04     0  02:40           0         3.8       0.195
  WS02006239           JUNCTION      0.00   313.15     0  04:10           0        3.69       0.117
  WS02006251           JUNCTION      0.08   411.41     0  02:40     0.00217        3.86       0.098
  WS02006252           JUNCTION      0.00   400.00     0  04:00           0        3.72       0.004
  WS02006253           JUNCTION      0.86    42.14     0  05:01     0.00213       0.147       0.939
  WS02006256           JUNCTION      0.00   339.44     0  02:44           0        3.08       0.088
  WS02004138           JUNCTION      0.00   380.00     0  01:40           0        7.44       0.061
  WS02004407           JUNCTION      0.00   458.59     0  02:48           0        6.26       0.086
  WS02006228           JUNCTION      0.00   469.60     0  02:43           0        6.42       0.177
  WS02006229           JUNCTION      0.00   469.60     0  02:43           0        6.44       0.165
  WS02006280           JUNCTION      0.00   124.70     0  02:22           0       0.639       0.011
  WS02006284           JUNCTION      0.10   124.70     0  02:22      0.0027        0.64       0.177
  WS02006287           JUNCTION      0.00   124.62     0  02:22           0       0.638       0.109
  WSF200               JUNCTION      0.00   451.73     0  02:52           0        6.16       0.051
  HS02004901           JUNCTION      6.84     6.84     0  02:13      0.0197      0.0199       9.678
  HS02004881           JUNCTION      2.74    22.41     0  02:21     0.00861      0.0892       0.227
  HS02004876           JUNCTION      4.27    19.93     0  02:21      0.0164      0.0811       0.641
  HS02004870           JUNCTION      4.79    15.78     0  02:21      0.0163      0.0648       0.162
  HS02004862           JUNCTION      3.93    11.36     0  02:21      0.0218      0.0487       0.338
  HS02004856           JUNCTION      3.55     7.48     0  02:21      0.0122      0.0283       5.339
  HS02004852           JUNCTION      0.00     4.19     0  02:21           0      0.0161       0.295
  HS02004848           JUNCTION      7.55     7.55     0  02:23      0.0383      0.0383       0.108
  HS02004842           JUNCTION      0.00     4.47     0  00:03           0      0.0353      58.377
  HS02004837           JUNCTION     13.96    17.18     0  02:19       0.207        0.23       0.356
  HS02004830           JUNCTION      0.15    17.32     0  02:20     0.00423        0.22       0.563
  HS02004824           JUNCTION      8.40    25.62     0  02:23      0.0504       0.269       0.200
  HS02004817           JUNCTION      0.60    26.22     0  02:23      0.0169       0.285       6.196
  HS02004807           JUNCTION      9.04    34.38     0  02:22      0.0299       0.299       1.434
  HS02004802           JUNCTION      0.00    34.42     0  02:24           0       0.295       1.400
  HS02004799           JUNCTION      6.92    76.88     0  02:19      0.0242       0.312       0.725
  HS02004792           JUNCTION     31.28    70.22     0  02:19       0.109       0.288       0.144
  HS02004788           JUNCTION     11.04    40.96     0  02:21      0.0807        0.18       0.217
  HS02004785           JUNCTION      0.15    30.43     0  02:20     0.00423       0.102       0.471
  HS02004777           JUNCTION      0.03    30.89     0  02:18    0.000846       0.102       5.355
  HS02004770           JUNCTION     26.47    32.12     0  02:16      0.0843       0.102       3.116
  HS02004480           JUNCTION      0.00    90.47     0  02:20           0        0.36       0.190
  HS02004479           JUNCTION      0.00    13.94     0  02:23           0      0.0603       1.221
  HS02004478           JUNCTION      0.00   124.62     0  02:22           0       0.639       0.103
  YS02001745           JUNCTION     38.62    38.62     0  03:01       0.463       0.463       0.075
  YS02001748           JUNCTION      0.04    38.66     0  03:01     0.00127       0.464       0.049
  YS02001751           JUNCTION      0.01    66.20     0  03:30     0.00031       0.587       0.269
  YS02001754           JUNCTION      0.26   198.74     0  04:57     0.00733        1.02       0.989
  YS02001762           JUNCTION      0.00    61.02     0  03:18           0       0.602       2.283
  YS02001765           JUNCTION      0.00    79.55     0  03:27           0       0.591       2.446
  YS02001767           JUNCTION      0.54    62.26     0  05:01      0.0151       0.596       3.327
  YS02001770           JUNCTION     50.47    56.55     0  02:33       0.555       0.576       2.877
  YS02001774           JUNCTION      0.00    28.26     0  02:30           0      0.0896      19.349
  YS02001779           JUNCTION      0.01    13.01     0  02:30    0.000141       0.054      10.482
  YS02001882           JUNCTION      0.00     2.38     0  02:12           0     0.00344      71.256
  YS02001884           JUNCTION      0.00     7.37     0  02:07           0       0.014      44.948
  YS02001759           JUNCTION     49.61   117.15     0  03:28       0.521         1.1       1.456
  YS02001887           JUNCTION     66.48    66.48     0  02:44       0.637       0.643       1.034
  YS02001890           JUNCTION      0.00    66.11     0  02:47           0       0.625       1.174
  YS02001898           JUNCTION      0.00    65.83     0  02:50           0       0.614       0.291
  YS02001901           JUNCTION      0.00    65.87     0  02:50           0       0.614       0.813
  YS02001904           JUNCTION      0.00    65.57     0  02:51           0       0.614       0.759
  YS02001907           JUNCTION      0.00   118.57     0  02:58           0        1.31       1.644
  YS02001910           JUNCTION      0.00    53.69     0  03:01           0       0.704       1.362
  YS02001915           JUNCTION     34.85    53.37     0  03:01         0.4       0.707       0.553
  YS02001918           JUNCTION      0.00    18.67     0  03:03           0       0.308       0.268
  YS02001619           JUNCTION     33.80    33.80     0  02:59       0.393       0.393       0.138
  YS02001629           JUNCTION      0.00    38.84     0  02:39           0       0.377       1.437
  YS02001641           JUNCTION      0.00    78.74     0  03:14           0       0.799       1.599
  YS02001644           JUNCTION     36.65   109.46     0  03:11       0.444        1.22       1.263
  YS02001652           JUNCTION      0.00    61.32     0  05:00           0        0.52       1.705
  YS02001655           JUNCTION      0.15    46.86     0  02:47     0.00434       0.471       0.684
  YS02001920           JUNCTION      2.87    18.68     0  03:02      0.0809        0.31       0.552
  YS02001923           JUNCTION      0.04    15.81     0  03:02     0.00106       0.229       0.097
  YS02001926           JUNCTION      0.05    15.81     0  03:01     0.00147       0.229       0.706
  YS02001929           JUNCTION     15.77    15.77     0  03:01       0.228       0.228       0.092
  YS02001658           JUNCTION      0.00    46.71     0  02:47           0       0.459       0.043
  YS02001661           JUNCTION      0.00    46.71     0  02:46           0       0.459       0.159
  YS02001664           JUNCTION     46.71    46.71     0  02:46        0.46        0.46       0.031
  YS02001622           JUNCTION      0.00    35.41     0  03:03           0       0.393       0.630
  YS02001633           JUNCTION     37.28    77.73     0  02:38       0.458       0.822       2.253
  YS02001649           JUNCTION      0.00   178.42     0  03:21           0        1.69       1.392
  YS02001757           JUNCTION      0.00   383.53     0  03:28           0        3.49       2.005
  YS02001895           JUNCTION      0.00    65.90     0  02:49           0       0.618       0.513
  YS02001625           JUNCTION      0.00    36.80     0  02:47           0        0.39       3.880
  YS02163301           JUNCTION      0.00    40.61     0  03:13           0       0.377       3.295
  YS02163601           JUNCTION      0.11    77.46     0  03:13      0.0031       0.804       2.399
  YS02164001           JUNCTION      0.00    77.62     0  03:13           0       0.794       1.469
  YS02001647           JUNCTION      0.00   112.16     0  03:14           0         1.2       0.983
  YSB1154              JUNCTION      7.60     7.60     0  02:17      0.0293      0.0307       4.937
  YSB6556              JUNCTION      0.00     7.51     0  02:20           0      0.0317       4.080
  YSB1174              JUNCTION      7.83     7.83     0  02:12      0.0214      0.0225       6.062
  YSB1171              JUNCTION      0.00    13.95     0  02:20           0      0.0597      11.824
  YS02006553           JUNCTION      0.00   118.63     0  03:02           0         1.3       1.072
  YS02006561           JUNCTION      0.00   174.02     0  02:57           0        1.83       0.029
  YS02006556           JUNCTION      0.00   118.80     0  03:02           0         1.3       0.767
  YS02006558           JUNCTION     56.02   174.04     0  02:56        0.58        1.86       0.231
  YS02001783           JUNCTION      0.00   174.02     0  02:57           0        1.83       0.066
  YS02001784           JUNCTION      1.06   175.08     0  02:57      0.0299        1.86       0.111
  YS02001786           JUNCTION      0.06   175.11     0  02:57     0.00159        1.86       0.108
  YS02001788           JUNCTION      0.07   175.18     0  02:57       0.002        1.86       0.061
  YS02001790           JUNCTION      0.15   175.33     0  02:57     0.00437        1.86       0.078
  YS02001791           JUNCTION      0.00   175.33     0  02:58           0        1.86       0.038
  YS02001793           JUNCTION      0.00   175.33     0  02:58           0        1.86       0.016
  WS02004139           JUNCTION      0.32   380.41     0  01:40     0.00905        7.44       0.439
  WSC                  OUTFALL       0.00   774.31     0  03:35           0        14.1       0.000
  3                    OUTFALL       0.00   258.31     0  02:44           0        1.17       0.000
  4                    OUTFALL       0.00    92.51     0  04:08           0       0.132       0.000
  5                    OUTFALL       0.00     0.00     0  00:00           0           0       0.000 ltr
  JK-storage           STORAGE       0.00   177.56     0  02:56           0        2.01     -34.839
  CC-storage           STORAGE       0.00   284.72     0  03:10           0        2.99     -19.633
  XR-storage           STORAGE     263.35   263.35     0  02:52        6.41        7.01      -6.631
  
  
  **********************
  Node Surcharge Summary
  **********************
  
  Surcharging occurs when water rises above the top of the highest conduit.
  ---------------------------------------------------------------------
                                               Max. Height   Min. Depth
                                   Hours       Above Crown    Below Rim
  Node                 Type      Surcharged         Meters       Meters
  ---------------------------------------------------------------------
  WS02006109           JUNCTION        0.80          0.075        1.745
  WS02006232           JUNCTION        0.86          0.060        1.420
  WS02006235           JUNCTION        0.36          0.033        1.257
  WS02006238           JUNCTION        0.59          0.052        1.378
  WS02006242           JUNCTION        0.37          0.033        0.787
  WS02006239           JUNCTION        0.02          0.005        1.285
  WS02006252           JUNCTION        1.34          0.185        0.915
  WS02006228           JUNCTION        0.72          0.087        2.113
  
  
  *********************
  Node Flooding Summary
  *********************
  
  No nodes were flooded.
  
  
  **********************
  Storage Volume Summary
  **********************
  
  --------------------------------------------------------------------------------------------------
                         Average     Avg  Evap Exfil       Maximum     Max    Time of Max    Maximum
                          Volume    Pcnt  Pcnt  Pcnt        Volume    Pcnt     Occurrence    Outflow
  Storage Unit           1000 m3    Full  Loss  Loss       1000 m3    Full    days hr:min        LPS
  --------------------------------------------------------------------------------------------------
  JK-storage               0.004       1     0     0         0.151      52       0  00:00     339.44
  CC-storage               0.045       0     0     0         0.280       2       0  03:55     400.00
  XR-storage               0.059       6     0     0         0.600      65       0  00:00     380.00
  
  
  ***********************
  Outfall Loading Summary
  ***********************
  
  -----------------------------------------------------------
                         Flow       Avg       Max       Total
                         Freq      Flow      Flow      Volume
  Outfall Node           Pcnt       LPS       LPS    10^6 ltr
  -----------------------------------------------------------
  WSC                   99.99    559.92    774.31      14.103
  3                     68.87     86.87    258.31       1.168
  4                     20.42     32.52     92.51       0.132
  5                      0.00      0.00      0.00       0.000
  -----------------------------------------------------------
  System                47.32    679.31    950.35      15.403
  
  
  ********************
  Link Flow Summary
  ********************
  
  -----------------------------------------------------------------------------
                                 Maximum  Time of Max   Maximum    Max/    Max/
                                  |Flow|   Occurrence   |Veloc|    Full    Full
  Link                 Type          LPS  days hr:min     m/sec    Flow   Depth
  -----------------------------------------------------------------------------
  WS02003066WSF200     CONDUIT    451.73     0  02:52      2.65    0.08    0.21
  WS02006287WS02006284 CONDUIT    124.60     0  02:22      1.36    0.06    0.17
  WS02006284WS02006280 CONDUIT    124.70     0  02:22      1.61    0.05    0.16
  WS02006280WS02006229 CONDUIT    124.70     0  02:23      2.57    0.03    0.11
  WS02006229WS02006228 CONDUIT    469.60     0  02:43      0.93    1.56    1.00
  WS02006256WS02006235 CONDUIT    166.25     0  00:01      2.58    1.76    1.00
  WS02006253WS02006251 CONDUIT     90.93     0  06:30      0.43    0.27    0.89
  WS02006252WS02006251 CONDUIT    400.18     0  04:00      3.18    1.47    1.00
  WS02006251WS02006249 CONDUIT    407.04     0  02:40      1.18    1.17    0.87
  WS02006249WS02006248 CONDUIT    354.64     0  04:00      1.17    1.94    0.82
  WS02006248WS02006247 CONDUIT    348.82     0  04:01      1.14    0.76    0.86
  WS02006247WS02006245 CONDUIT    342.37     0  04:01      1.12    2.71    0.89
  WS02006245WS02006243 CONDUIT    335.36     0  04:01      1.16    0.99    0.90
  WS02006243WS02006242 CONDUIT    324.90     0  04:01      1.03    0.69    0.96
  WS02006242WS02006240 CONDUIT    315.23     0  04:01      0.94    1.25    0.99
  WS02006240WS02006239 CONDUIT    313.15     0  04:10      0.94    0.99    1.00
  WS02006239WS02006238 CONDUIT    313.41     0  04:10      0.81    1.00    1.00
  WS02006238WS02006235 CONDUIT    313.42     0  04:10      1.25    0.70    1.00
  WS02006235WS02006234 CONDUIT    385.54     0  04:05      1.04    4.07    0.99
  WS02006234WS02006232 CONDUIT    384.09     0  04:05      1.13    0.78    1.00
  WS02006232WS02006231 CONDUIT    383.91     0  04:06      1.05    0.80    0.94
  WS02006231WS02006230 CONDUIT    383.40     0  04:06      1.34    5.82    0.83
  WS02006230WS02006229 CONDUIT    393.50     0  04:07      1.02    8.76    1.00
  WS02006228WS02006109 CONDUIT    469.60     0  02:43      0.93    2.05    1.00
  WS02006116WS02004401 CONDUIT    460.87     0  02:47      0.73    0.64    0.78
  WS02006115WS02006116 CONDUIT    463.57     0  02:45      0.82    0.59    0.69
  WS02006113WS02006111 CONDUIT    484.97     0  02:43      2.35    0.58    0.43
  WS02006112WS02006115 CONDUIT    469.17     0  02:44      0.69    0.28    0.82
  WS02006111WS02006112 CONDUIT    473.88     0  02:44      1.34    0.23    0.66
  WS02006110WS02006113 CONDUIT    471.02     0  02:43      1.14    0.43    0.76
  WS02006109WS02006110 CONDUIT    470.88     0  02:43      0.94    0.91    0.98
  WS02004411WS02004412 CONDUIT    452.56     0  02:50      0.85    0.64    0.64
  WS02004401WS02004402 CONDUIT    459.78     0  02:47      0.77    0.55    0.80
  WS02004413WS02003067 CONDUIT    451.69     0  02:51      1.01    0.19    0.55
  WS02004412WS02004413 CONDUIT    452.04     0  02:51      0.74    0.30    0.73
  WS02004410WS02004411 CONDUIT    453.74     0  02:50      0.88    0.62    0.63
  WS02004409WS02004410 CONDUIT    455.61     0  02:49      0.92    0.59    0.61
  WS02004407WS02004409 CONDUIT    458.42     0  02:48      1.41    0.16    0.44
  WS02004406WS02004407 CONDUIT    458.59     0  02:48      0.95    0.20    0.59
  WS02004405WS02004406 CONDUIT    458.78     0  02:48      0.66    0.90    0.91
  WS02004404WS02004405 CONDUIT    458.93     0  02:48      0.84    4.50    0.91
  WS02004403WS02004404 CONDUIT    458.91     0  02:47      0.74    0.33    0.87
  WS02004402WS02004403 CONDUIT    459.19     0  02:47      0.75    0.66    0.83
  WS02004139WS02001211 CONDUIT    380.32     0  01:59      0.81    0.48    0.58
  WS02004138WS02004139 CONDUIT    380.09     0  01:40      3.33    0.08    0.43
  WS02003067WS02003066 CONDUIT    451.75     0  02:51      1.09    0.14    0.39
  WS02001213WS02003059 CONDUIT    387.64     0  01:58      0.80    0.64    0.73
  WS02001212WS02001213 CONDUIT    387.67     0  02:00      1.32    0.60    0.44
  WS02001211WS02001212 CONDUIT    387.67     0  02:00      0.78    0.30    0.63
  WS02003072WS02003073 CONDUIT    772.75     0  03:34      1.61    1.67    0.44
  WS02003069WS02003072 CONDUIT    772.94     0  03:33      1.52    0.37    0.46
  WS02003060WS02003069 CONDUIT    772.99     0  03:33      1.78    0.30    0.41
  WS02003059WS02003060 CONDUIT    387.57     0  01:58      0.94    0.25    0.61
  HS02004901HS02004770 CONDUIT      6.02     0  02:18      0.03    0.02    0.26
  HS02004876HS02004881 CONDUIT     19.94     0  02:22      0.39    0.21    0.07
  HS02004870HS02004876 CONDUIT     15.76     0  02:22      0.27    0.01    0.08
  HS02004842HS02004848 CONDUIT      3.57     0  02:31      0.02    0.00    0.26
  HS02004837HS02004842 CONDUIT      4.47     0  00:03      0.41    0.00    0.28
  HS02004830HS02004837 CONDUIT     17.17     0  02:20      0.38    0.02    0.06
  HS02004824HS02004830 CONDUIT     17.32     0  02:21      0.43    0.02    0.06
  HS02004817HS02004824 CONDUIT     25.62     0  02:23      0.17    0.01    0.37
  HS02004770HS02004777 CONDUIT     30.86     0  02:18      0.16    0.06    0.28
  HS02004799HS02004480 CONDUIT     76.73     0  02:20      0.45    0.10    0.24
  HS02004792HS02004799 CONDUIT     70.18     0  02:20      0.52    0.04    0.19
  HS02004788HS02004792 CONDUIT     40.92     0  02:21      0.69    0.03    0.09
  HS02004785HS02004788 CONDUIT     30.31     0  02:21      0.40    0.23    0.11
  HS02004777HS02004785 CONDUIT     30.28     0  02:20      0.20    0.04    0.22
  HS02004480HS02004478 CONDUIT     90.45     0  02:21      0.77    0.38    0.17
  HS02004479HS02004480 CONDUIT     14.06     0  02:23      0.16    0.01    0.24
  HS02004862HS02004870 CONDUIT     11.32     0  02:22      0.37    0.01    0.04
  HS02004848HS02004852 CONDUIT      4.19     0  02:21      0.24    0.00    0.03
  HS02004856HS02004862 CONDUIT      7.45     0  02:22      0.27    0.01    0.04
  HS02004852HS02004856 CONDUIT      4.16     0  02:23      0.08    0.00    0.08
  HS02004802HS02004478 CONDUIT     34.57     0  02:25      0.23    0.03    0.21
  HS02004478WS02006287 CONDUIT    124.62     0  02:22      1.05    0.03    0.13
  HS02004817HS02004807 CONDUIT     26.43     0  02:26      0.08    0.02    0.47
  HS02004807HS02004802 CONDUIT     34.42     0  02:24      0.19    0.07    0.25
  YS02001759YS02001757 CONDUIT    109.23     0  02:59      0.15    0.08    0.89
  YS02001762YS02001759 CONDUIT     77.99     0  03:28      0.17    0.09    0.82
  YS02001765YS02001762 CONDUIT     61.02     0  03:18      0.22    0.06    0.78
  YS02001770YS02001767 CONDUIT     60.01     0  02:33      0.31    0.24    0.71
  YS02001774YS02001770 CONDUIT     28.26     0  02:30      0.12    0.02    0.73
  YS02001779YS02001774 CONDUIT     13.01     0  02:30      0.07    0.01    0.65
  YS02001649YS02001757 CONDUIT    168.69     0  03:14      0.23    0.10    0.88
  YS02001767YS02001765 CONDUIT     79.55     0  03:27      0.26    0.10    0.73
  YS02006561YS02001783 CONDUIT    174.02     0  02:57      1.53    0.09    0.28
  YS02001783YS02001784 CONDUIT    174.02     0  02:57      1.02    0.24    0.37
  YS02001784YS02001785 CONDUIT    175.06     0  02:57      1.06    0.41    0.36
  YS02001788YS02001790 CONDUIT    175.17     0  02:57      1.61    0.13    0.27
  YS02001790YS02001791 CONDUIT    175.33     0  02:58      1.83    0.19    0.25
  YS02001791YS02001793 CONDUIT    175.33     0  02:58      3.66    0.08    0.16
  YS02001910YS02001907 CONDUIT     53.75     0  03:01      0.49    0.03    0.62
  YS02001786YS02001788 CONDUIT    175.11     0  02:57      1.46    0.34    0.29
  YS02001915YS02001910 CONDUIT     53.69     0  03:01      0.44    0.03    0.41
  YS02001918YS02001915 CONDUIT     18.66     0  03:04      0.44    0.01    0.19
  YS02001923YS02001920 CONDUIT     15.81     0  03:02      0.32    0.01    0.11
  YS02001926YS02001923 CONDUIT     15.78     0  03:02      0.38    0.02    0.10
  YS02001929YS02001926 CONDUIT     15.76     0  03:01      0.40    0.01    0.10
  YS02001920YS02001918 CONDUIT     18.67     0  03:03      0.36    0.02    0.12
  YS02001629YS02163301 CONDUIT     40.61     0  03:13      0.09    0.05    0.67
  YS02001619YS02001622 CONDUIT     35.41     0  03:03      0.56    0.05    0.29
  YS02001622YS02001625 CONDUIT     36.80     0  02:47      0.18    0.02    0.45
  YS02001625YS02001629 CONDUIT     38.84     0  02:39      0.18    0.02    0.44
  YS02163301YS02001633 CONDUIT     42.65     0  02:38      0.09    0.04    0.72
  YS02163601YS02164001 CONDUIT     77.62     0  03:13      0.12    0.07    0.78
  YS02164001YS02001641 CONDUIT     78.74     0  03:14      0.12    0.11    0.76
  YS02001641YS02001644 CONDUIT     75.48     0  03:16      0.13    0.24    0.77
  YS02001647YS02001649 CONDUIT    116.64     0  03:15      0.20    0.06    0.70
  YS02006553YS02006556 CONDUIT    118.80     0  03:02      0.20    0.10    0.71
  YS02006556YS02006558 CONDUIT    118.91     0  03:02      0.19    0.09    0.74
  YSB6556YSB1171       CONDUIT      7.54     0  02:24      0.04    0.01    0.51
  YS02001907YS02006553 CONDUIT    118.63     0  03:02      0.16    0.14    0.81
  YS02006558YS02006561 CONDUIT    174.02     0  02:57      1.97    0.38    0.35
  YS02001633YS02163601 CONDUIT     77.35     0  03:13      0.13    0.08    0.77
  YS02001644YS02001647 CONDUIT    112.16     0  03:14      0.20    0.07    0.68
  YS02001745YS02001748 CONDUIT     38.61     0  03:01      1.20    0.01    0.09
  YS02001748YS02001751 CONDUIT     46.46     0  03:16      0.95    0.02    0.23
  YS02001751YS02001754 CONDUIT     90.91     0  03:37      0.88    0.04    0.44
  YS02001754YS02001757 CONDUIT    159.52     0  04:57      0.33    0.06    0.77
  YS02001882YS02001884 CONDUIT      2.38     0  02:12      0.06    0.00    0.35
  YS02001884YS02001887 CONDUIT      7.37     0  02:07      0.05    0.01    0.44
  YS02001890YS02001895 CONDUIT     65.90     0  02:49      0.22    0.03    0.41
  YS02001895YS02001898 CONDUIT     65.83     0  02:50      0.44    0.11    0.28
  YS02001898YS02001901 CONDUIT     65.87     0  02:50      0.26    0.04    0.36
  YS02001901YS02001904 CONDUIT     65.57     0  02:51      0.22    0.10    0.41
  YS02001904YS02001907 CONDUIT     65.68     0  02:53      0.14    0.02    0.57
  YS02001887YS02001890 CONDUIT     66.11     0  02:47      0.17    0.11    0.50
  YS02001652YS02001649 CONDUIT     66.55     0  03:21      0.29    0.03    0.71
  YS02001655YS02001652 CONDUIT     58.71     0  03:14      0.94    0.03    0.47
  YS02001658YS02001655 CONDUIT     46.71     0  02:47      1.09    0.02    0.23
  YS02001661YS02001658 CONDUIT     46.71     0  02:47      1.22    0.02    0.10
  YS02001664YS02001661 CONDUIT     46.71     0  02:46      0.83    0.01    0.12
  YSB1154YSB6556       CONDUIT      7.51     0  02:20      0.19    0.01    0.40
  YSB1174YSB1171       CONDUIT      7.18     0  02:14      0.04    0.01    0.52
  YSB1171HS02004479    CONDUIT     13.94     0  02:23      0.54    0.01    0.39
  HS02004881HS02006253 CONDUIT     22.40     0  02:21      1.34    0.00    0.22
  YS02001793JiankangQianchi CONDUIT    177.56     0  02:56     11.04    0.01    0.54
  YS02001757CaochengTiaoxuchi CONDUIT    284.72     0  03:10      0.74    0.13    0.51
  WSF200WS02003060     CONDUIT    451.89     0  02:52      1.61    0.10    0.30
  1                    CONDUIT    774.31     0  03:35      3.10    0.27    0.35
  2                    CONDUIT     92.51     0  04:08      4.74    0.22    0.32
  3                    CONDUIT    258.31     0  02:44      8.40    0.41    0.45
  4                    CONDUIT      0.00     0  00:00      0.00    0.00    0.00
  CC-Pump-1            PUMP       200.00     0  02:38              1.00
  CC-Pump-2            PUMP       200.00     0  03:00              1.00
  JK-Pump-1            PUMP       300.00     0  00:00              1.00
  JK-Pump-2            PUMP       174.92     0  02:54              0.58
  XR-Pump-1            PUMP        95.00     0  00:00              1.00
  XR-Pump-2            PUMP        95.00     0  00:00              1.00
  XR-Pump-3            PUMP        95.00     0  00:00              1.00
  XR-Pump-4            PUMP        95.00     0  00:20              1.00
  
  
  ***************************
  Flow Classification Summary
  ***************************
  
  -------------------------------------------------------------------------------------
                      Adjusted    ---------- Fraction of Time in Flow Class ---------- 
                       /Actual         Up    Down  Sub   Sup   Up    Down  Norm  Inlet 
  Conduit               Length    Dry  Dry   Dry   Crit  Crit  Crit  Crit  Ltd   Ctrl  
  -------------------------------------------------------------------------------------
  WS02003066WSF200        1.00   0.04  0.02  0.00  0.00  0.93  0.00  0.00  0.76  0.00
  WS02006287WS02006284    1.00   0.04  0.02  0.00  0.72  0.22  0.00  0.00  0.81  0.00
  WS02006284WS02006280    1.00   0.05  0.00  0.00  0.00  0.00  0.00  0.95  0.00  0.00
  WS02006280WS02006229    1.00   0.05  0.00  0.00  0.00  0.00  0.00  0.95  0.00  0.00
  WS02006229WS02006228    1.00   0.00  0.00  0.00  0.99  0.00  0.00  0.01  0.00  0.00
  WS02006256WS02006235    1.00   0.00  0.00  0.00  1.00  0.00  0.00  0.00  0.00  0.00
  WS02006253WS02006251    1.00   0.03  0.01  0.00  0.95  0.00  0.00  0.00  0.00  0.00
  WS02006252WS02006251    1.00   0.10  0.00  0.00  0.00  0.00  0.89  0.00  0.00  0.00
  WS02006251WS02006249    1.00   0.00  0.00  0.00  1.00  0.00  0.00  0.00  0.32  0.00
  WS02006249WS02006248    1.00   0.00  0.02  0.00  0.87  0.00  0.10  0.00  0.00  0.00
  WS02006248WS02006247    1.00   0.03  0.00  0.00  0.97  0.00  0.00  0.00  0.21  0.00
  WS02006247WS02006245    1.00   0.02  0.00  0.00  0.97  0.00  0.00  0.01  0.00  0.00
  WS02006245WS02006243    1.00   0.01  0.00  0.00  0.93  0.00  0.00  0.05  0.02  0.00
  WS02006243WS02006242    1.00   0.01  0.00  0.00  0.99  0.00  0.00  0.00  0.28  0.00
  WS02006242WS02006240    1.00   0.00  0.00  0.00  1.00  0.00  0.00  0.00  0.00  0.00
  WS02006240WS02006239    1.00   0.00  0.00  0.00  0.95  0.00  0.00  0.05  0.01  0.00
  WS02006239WS02006238    1.00   0.00  0.00  0.00  1.00  0.00  0.00  0.00  0.00  0.00
  WS02006238WS02006235    1.00   0.00  0.00  0.00  1.00  0.00  0.00  0.00  0.00  0.00
  WS02006235WS02006234    1.00   0.00  0.00  0.00  0.95  0.00  0.05  0.00  0.00  0.00
  WS02006234WS02006232    1.00   0.00  0.00  0.00  1.00  0.00  0.00  0.00  0.11  0.00
  WS02006232WS02006231    1.00   0.00  0.00  0.00  0.99  0.00  0.01  0.00  0.00  0.00
  WS02006231WS02006230    1.00   0.00  0.00  0.00  0.43  0.00  0.57  0.00  0.00  0.00
  WS02006230WS02006229    1.00   0.00  0.00  0.00  0.98  0.00  0.00  0.02  0.01  0.00
  WS02006228WS02006109    1.00   0.00  0.00  0.00  1.00  0.00  0.00  0.00  0.00  0.00
  WS02006116WS02004401    1.00   0.03  0.00  0.00  0.97  0.00  0.00  0.00  0.00  0.00
  WS02006115WS02006116    1.00   0.03  0.00  0.00  0.97  0.00  0.00  0.01  0.00  0.00
  WS02006113WS02006111    1.00   0.02  0.00  0.00  0.00  0.98  0.00  0.00  0.14  0.00
  WS02006112WS02006115    1.00   0.02  0.00  0.00  0.97  0.00  0.00  0.00  0.00  0.00
  WS02006111WS02006112    1.00   0.02  0.00  0.00  0.97  0.00  0.00  0.00  0.98  0.00
  WS02006110WS02006113    1.00   0.01  0.01  0.00  0.98  0.00  0.00  0.00  0.00  0.00
  WS02006109WS02006110    1.00   0.00  0.01  0.00  0.98  0.00  0.01  0.00  0.00  0.00
  WS02004411WS02004412    1.00   0.04  0.00  0.00  0.96  0.00  0.00  0.00  0.00  0.00
  WS02004401WS02004402    1.00   0.03  0.00  0.00  0.97  0.00  0.00  0.00  0.00  0.00
  WS02004413WS02003067    1.00   0.04  0.02  0.00  0.00  0.00  0.94  0.00  0.00  0.00
  WS02004412WS02004413    1.00   0.04  0.00  0.00  0.96  0.00  0.00  0.00  0.03  0.00
  WS02004410WS02004411    1.00   0.04  0.00  0.00  0.96  0.00  0.00  0.00  0.04  0.00
  WS02004409WS02004410    1.00   0.04  0.00  0.00  0.96  0.00  0.00  0.00  0.04  0.00
  WS02004407WS02004409    1.00   0.04  0.00  0.00  0.96  0.00  0.00  0.00  0.89  0.00
  WS02004406WS02004407    1.00   0.00  0.04  0.00  0.96  0.00  0.00  0.00  0.00  0.00
  WS02004405WS02004406    1.00   0.00  0.00  0.00  1.00  0.00  0.00  0.00  0.00  0.00
  WS02004404WS02004405    1.00   0.00  0.00  0.00  1.00  0.00  0.00  0.00  0.00  0.00
  WS02004403WS02004404    1.00   0.00  0.03  0.00  0.97  0.00  0.00  0.00  0.01  0.00
  WS02004402WS02004403    1.00   0.03  0.00  0.00  0.97  0.00  0.00  0.00  0.00  0.00
  WS02004139WS02001211    1.00   0.00  0.00  0.00  1.00  0.00  0.00  0.00  0.00  0.00
  WS02004138WS02004139    1.00   0.00  0.00  0.00  0.99  0.01  0.00  0.00  1.00  0.00
  WS02003067WS02003066    1.00   0.06  0.00  0.00  0.94  0.00  0.00  0.00  0.00  0.00
  WS02001213WS02003059    1.00   0.00  0.00  0.00  0.99  0.00  0.00  0.00  0.00  0.00
  WS02001212WS02001213    1.00   0.00  0.00  0.00  0.82  0.00  0.18  0.00  0.00  0.00
  WS02001211WS02001212    1.00   0.00  0.00  0.00  1.00  0.00  0.00  0.00  0.00  0.00
  WS02003072WS02003073    1.00   0.00  0.00  0.00  0.00  0.00  0.00  1.00  0.00  0.00
  WS02003069WS02003072    1.00   0.00  0.00  0.00  0.99  0.01  0.00  0.00  0.22  0.00
  WS02003060WS02003069    1.00   0.00  0.00  0.00  0.98  0.02  0.00  0.00  0.10  0.00
  WS02003059WS02003060    1.00   0.00  0.00  0.00  1.00  0.00  0.00  0.00  0.01  0.00
  HS02004901HS02004770    1.00   0.05  0.00  0.00  0.95  0.00  0.00  0.00  0.03  0.00
  HS02004876HS02004881    1.00   0.03  0.00  0.00  0.97  0.00  0.00  0.00  0.00  0.00
  HS02004870HS02004876    1.00   0.01  0.00  0.00  0.99  0.00  0.00  0.00  0.95  0.00
  HS02004842HS02004848    1.00   0.00  0.05  0.00  0.95  0.00  0.00  0.00  0.71  0.00
  HS02004837HS02004842    1.00   0.00  0.00  0.00  0.99  0.01  0.00  0.00  0.11  0.00
  HS02004830HS02004837    1.00   0.00  0.00  0.00  1.00  0.00  0.00  0.00  0.99  0.00
  HS02004824HS02004830    1.00   0.00  0.00  0.00  1.00  0.00  0.00  0.00  0.00  0.00
  HS02004817HS02004824    1.00   0.00  0.00  0.00  1.00  0.00  0.00  0.00  1.00  0.00
  HS02004770HS02004777    1.00   0.00  0.05  0.00  0.95  0.00  0.00  0.00  0.08  0.00
  HS02004799HS02004480    1.00   0.00  0.03  0.00  0.94  0.00  0.03  0.00  0.00  0.00
  HS02004792HS02004799    1.00   0.00  0.00  0.00  0.98  0.02  0.00  0.00  0.98  0.00
  HS02004788HS02004792    1.00   0.00  0.00  0.00  0.99  0.01  0.00  0.00  0.98  0.00
  HS02004785HS02004788    1.00   0.00  0.00  0.00  1.00  0.00  0.00  0.00  0.00  0.00
  HS02004777HS02004785    1.00   0.00  0.00  0.00  1.00  0.00  0.00  0.00  0.21  0.00
  HS02004480HS02004478    1.00   0.05  0.00  0.00  0.75  0.00  0.00  0.20  0.00  0.00
  HS02004479HS02004480    1.00   0.03  0.00  0.00  0.97  0.00  0.00  0.00  0.16  0.00
  HS02004862HS02004870    1.00   0.00  0.00  0.00  1.00  0.00  0.00  0.00  0.05  0.00
  HS02004848HS02004852    1.00   0.05  0.00  0.00  0.95  0.00  0.00  0.00  0.70  0.00
  HS02004856HS02004862    1.00   0.00  0.08  0.00  0.92  0.00  0.00  0.00  0.73  0.00
  HS02004852HS02004856    1.00   0.05  0.01  0.00  0.94  0.00  0.00  0.00  0.82  0.00
  HS02004802HS02004478    1.00   0.05  0.01  0.00  0.94  0.00  0.00  0.00  0.00  0.00
  HS02004478WS02006287    1.00   0.06  0.00  0.00  0.94  0.00  0.00  0.00  0.81  0.00
  HS02004817HS02004807    1.00   0.00  0.05  0.00  0.95  0.00  0.00  0.00  0.00  0.00
  HS02004807HS02004802    1.00   0.05  0.00  0.00  0.95  0.00  0.00  0.00  0.01  0.00
  YS02001759YS02001757    1.00   0.00  0.00  0.00  1.00  0.00  0.00  0.00  0.17  0.00
  YS02001762YS02001759    1.00   0.00  0.00  0.00  1.00  0.00  0.00  0.00  0.05  0.00
  YS02001765YS02001762    1.00   0.00  0.00  0.00  1.00  0.00  0.00  0.00  0.23  0.00
  YS02001770YS02001767    1.00   0.00  0.00  0.00  1.00  0.00  0.00  0.00  0.00  0.00
  YS02001774YS02001770    1.00   0.00  0.06  0.00  0.94  0.00  0.00  0.00  0.07  0.00
  YS02001779YS02001774    1.00   0.00  0.00  0.00  1.00  0.00  0.00  0.00  0.28  0.00
  YS02001649YS02001757    1.00   0.00  0.00  0.00  1.00  0.00  0.00  0.00  0.19  0.00
  YS02001767YS02001765    1.00   0.00  0.00  0.00  1.00  0.00  0.00  0.00  0.01  0.00
  YS02006561YS02001783    1.00   0.08  0.00  0.00  0.00  0.92  0.00  0.00  0.72  0.00
  YS02001783YS02001784    1.00   0.00  0.08  0.00  0.92  0.00  0.00  0.00  0.10  0.00
  YS02001784YS02001785    1.00   0.00  0.00  0.00  1.00  0.00  0.00  0.00  0.26  0.00
  YS02001788YS02001790    1.00   0.00  0.00  0.00  0.08  0.92  0.00  0.00  0.99  0.00
  YS02001790YS02001791    1.00   0.00  0.00  0.00  0.02  0.98  0.00  0.00  0.37  0.00
  YS02001791YS02001793    1.00   0.00  0.00  0.00  0.00  1.00  0.00  0.00  0.00  0.00
  YS02001910YS02001907    1.00   0.00  0.00  0.00  0.97  0.00  0.00  0.03  0.13  0.00
  YS02001786YS02001788    1.00   0.00  0.00  0.00  0.09  0.91  0.00  0.00  0.00  0.00
  YS02001915YS02001910    1.00   0.00  0.00  0.00  0.99  0.01  0.00  0.00  0.25  0.00
  YS02001918YS02001915    1.00   0.00  0.01  0.00  0.98  0.02  0.00  0.00  0.81  0.00
  YS02001923YS02001920    1.00   0.00  0.00  0.00  1.00  0.00  0.00  0.00  1.00  0.00
  YS02001926YS02001923    1.00   0.00  0.04  0.00  0.00  0.00  0.96  0.00  0.00  0.00
  YS02001929YS02001926    1.00   0.00  0.05  0.00  0.95  0.00  0.00  0.00  0.86  0.00
  YS02001920YS02001918    1.00   0.00  0.01  0.00  0.99  0.00  0.00  0.00  0.00  0.00
  YS02001629YS02163301    1.00   0.07  0.00  0.00  0.93  0.00  0.00  0.00  0.00  0.00
  YS02001619YS02001622    1.00   0.05  0.00  0.00  0.95  0.00  0.00  0.00  0.00  0.00
  YS02001622YS02001625    1.00   0.05  0.00  0.00  0.95  0.00  0.00  0.00  0.14  0.00
  YS02001625YS02001629    1.00   0.05  0.03  0.00  0.90  0.00  0.02  0.00  0.00  0.00
  YS02163301YS02001633    1.00   0.00  0.07  0.00  0.93  0.00  0.00  0.00  0.00  0.00
  YS02163601YS02164001    1.00   0.00  0.04  0.00  0.96  0.00  0.00  0.00  0.00  0.00
  YS02164001YS02001641    1.00   0.01  0.03  0.00  0.96  0.00  0.00  0.00  0.07  0.00
  YS02001641YS02001644    1.00   0.00  0.01  0.00  0.99  0.00  0.00  0.00  0.00  0.00
  YS02001647YS02001649    1.00   0.00  0.08  0.00  0.92  0.00  0.00  0.00  0.01  0.00
  YS02006553YS02006556    1.00   0.02  0.00  0.00  0.98  0.00  0.00  0.00  0.03  0.00
  YS02006556YS02006558    1.00   0.00  0.00  0.00  1.00  0.00  0.00  0.00  0.00  0.00
  YSB6556YSB1171          1.00   0.03  0.02  0.00  0.95  0.00  0.00  0.00  0.00  0.00
  YS02001907YS02006553    1.00   0.00  0.02  0.00  0.97  0.00  0.00  0.00  0.00  0.00
  YS02006558YS02006561    1.00   0.08  0.00  0.00  0.00  0.92  0.00  0.00  0.71  0.00
  YS02001633YS02163601    1.00   0.00  0.01  0.00  0.99  0.00  0.00  0.00  0.20  0.00
  YS02001644YS02001647    1.00   0.00  0.08  0.00  0.92  0.00  0.00  0.00  0.00  0.00
  YS02001745YS02001748    1.00   0.00  0.00  0.00  0.00  0.00  0.00  1.00  0.00  0.00
  YS02001748YS02001751    1.00   0.00  0.00  0.00  0.97  0.03  0.00  0.00  0.78  0.00
  YS02001751YS02001754    1.00   0.00  0.00  0.00  0.92  0.00  0.00  0.08  0.02  0.00
  YS02001754YS02001757    1.00   0.00  0.00  0.00  0.99  0.01  0.00  0.00  0.27  0.00
  YS02001882YS02001884    1.00   0.06  0.00  0.00  0.93  0.00  0.00  0.00  0.00  0.00
  YS02001884YS02001887    1.00   0.03  0.01  0.00  0.95  0.00  0.00  0.00  0.00  0.00
  YS02001890YS02001895    1.00   0.00  0.07  0.00  0.93  0.00  0.00  0.00  0.00  0.00
  YS02001895YS02001898    1.00   0.07  0.00  0.00  0.92  0.00  0.01  0.00  0.00  0.00
  YS02001898YS02001901    1.00   0.07  0.01  0.00  0.93  0.00  0.00  0.00  0.02  0.00
  YS02001901YS02001904    1.00   0.07  0.00  0.00  0.93  0.00  0.00  0.00  0.00  0.00
  YS02001904YS02001907    1.00   0.00  0.06  0.00  0.93  0.00  0.00  0.00  0.00  0.00
  YS02001887YS02001890    1.00   0.00  0.00  0.00  0.97  0.00  0.03  0.00  0.00  0.00
  YS02001652YS02001649    1.00   0.00  0.00  0.00  1.00  0.00  0.00  0.00  0.27  0.00
  YS02001655YS02001652    1.00   0.00  0.00  0.00  0.92  0.00  0.00  0.08  0.03  0.00
  YS02001658YS02001655    1.00   0.00  0.06  0.00  0.90  0.04  0.00  0.00  0.79  0.00
  YS02001661YS02001658    1.00   0.06  0.00  0.00  0.00  0.94  0.00  0.00  0.72  0.00
  YS02001664YS02001661    1.00   0.05  0.00  0.00  0.95  0.00  0.00  0.00  0.86  0.00
  YSB1154YSB6556          1.00   0.05  0.00  0.00  0.95  0.00  0.00  0.00  0.02  0.00
  YSB1174YSB1171          1.00   0.03  0.01  0.00  0.96  0.00  0.00  0.00  0.00  0.00
  YSB1171HS02004479       1.00   0.03  0.00  0.00  0.97  0.00  0.00  0.00  0.13  0.00
  HS02004881HS02006253    1.00   0.03  0.00  0.00  0.73  0.02  0.00  0.22  0.52  0.00
  YS02001793JiankangQianchi    1.00   0.00  0.00  0.00  0.07  0.93  0.00  0.00  0.08  0.00
  YS02001757CaochengTiaoxuchi    1.00   0.00  0.10  0.00  0.90  0.00  0.00  0.00  0.00  0.00
  WSF200WS02003060        1.00   0.00  0.04  0.00  0.88  0.08  0.00  0.00  0.54  0.00
  1                       1.00   0.00  0.00  0.00  0.00  1.00  0.00  0.00  0.46  0.00
  2                       1.00   0.79  0.00  0.00  0.00  0.21  0.00  0.00  0.06  0.00
  3                       1.00   0.31  0.00  0.00  0.00  0.69  0.00  0.00  0.43  0.00
  4                       1.00   1.00  0.00  0.00  0.00  0.00  0.00  0.00  0.00  0.00
  
  
  *************************
  Conduit Surcharge Summary
  *************************
  
  ----------------------------------------------------------------------------
                                                           Hours        Hours 
                         --------- Hours Full --------   Above Full   Capacity
  Conduit                Both Ends  Upstream  Dnstream   Normal Flow   Limited
  ----------------------------------------------------------------------------
  WS02006229WS02006228        0.72      0.88      0.72      2.95         0.72
  WS02006256WS02006235        5.57      5.58      7.14      2.23         0.01
  WS02006252WS02006251        0.49      0.49      1.34      1.05         0.01
  WS02006251WS02006249        0.01      0.01      0.01      0.47         0.01
  WS02006249WS02006248        0.01      0.01      0.01      2.84         0.01
  WS02006247WS02006245        0.01      0.01      0.01      4.20         0.01
  WS02006243WS02006242        0.01      0.01      0.37      0.01         0.01
  WS02006242WS02006240        0.01      0.01      0.63      1.23         0.01
  WS02006240WS02006239        0.01      0.01      0.02      0.01         0.01
  WS02006239WS02006238        0.52      0.52      0.59      0.02         0.03
  WS02006238WS02006235        0.48      0.48      0.80      0.01         0.01
  WS02006235WS02006234        0.01      0.01      0.36      5.56         0.01
  WS02006234WS02006232        0.05      0.05      0.86      0.01         0.01
  WS02006232WS02006231        0.01      0.01      0.86      0.01         0.01
  WS02006231WS02006230        0.01      0.01      0.01      5.64         0.01
  WS02006230WS02006229        1.59      2.62      1.59      5.73         1.59
  WS02006228WS02006109        0.80      1.20      0.80      4.68         0.80
  WS02006111WS02006112        0.01      0.01      3.32      0.01         0.01
  WS02006110WS02006113        0.01      0.01      1.00      0.01         0.01
  WS02006109WS02006110        0.01      0.01      1.20      0.01         0.01
  WS02004404WS02004405        0.01      0.01      0.01      5.48         0.01
  WS02003072WS02003073        0.01      0.01      0.01      4.52         0.01
  YS02001793JiankangQianchi        0.01      0.01      0.13      0.01         0.01
  
  
  ***************
  Pumping Summary
  ***************
  
  ---------------------------------------------------------------------------------------------------------
                                                  Min       Avg       Max     Total     Power    % Time Off
                        Percent   Number of      Flow      Flow      Flow    Volume     Usage    Pump Curve
  Pump                 Utilized   Start-Ups       LPS       LPS       LPS  10^6 ltr     Kw-hr    Low   High
  ---------------------------------------------------------------------------------------------------------
  CC-Pump-1               60.01           5      0.00    111.39    200.00     1.788      7.93    0.0  100.0
  CC-Pump-2               57.88           3      0.00    122.50    200.00     1.928      8.56    0.0  100.0
  JK-Pump-1               85.11           6      0.00     92.98    300.00     1.783     33.76    0.0    0.0
  JK-Pump-2               82.97           5      0.00     77.15    174.92     1.298     25.34    0.0    0.0
  XR-Pump-1               89.37           2      0.00     83.83     95.00     2.024     47.14    0.0    0.0
  XR-Pump-2               89.35           6      0.00     67.36     95.00     1.739     39.86    0.0    0.0
  XR-Pump-3               87.22           7      0.00     65.91     95.00     1.596     36.94    0.0    0.0
  XR-Pump-4               91.47           4      0.00     80.26     95.00     2.080     49.29    0.0    0.0
  

  Analysis begun on:  Tue Dec 21 13:34:04 2021
  Analysis ended on:  Tue Dec 21 13:34:07 2021
  Total elapsed time: 00:00:03