
  EPA STORM WATER MANAGEMENT MODEL - VERSION 5.1 (Build 5.3.0.dev0)
  --------------------------------------------------------------

  WARNING 04: minimum elevation drop used for Conduit WS02004404WS02004405
  WARNING 03: negative offset ignored for Link YS02001904YS02001907
  
  *********************************************************
  NOTE: The summary statistics displayed in this report are
  based on results found at every computational time step,  
  not just on results from each reporting time step.
  *********************************************************
  
  ****************
  Analysis Options
  ****************
  Flow Units ............... LPS
  Process Models:
    Rainfall/Runoff ........ YES
    RDII ................... NO
    Snowmelt ............... NO
    Groundwater ............ NO
    Flow Routing ........... YES
    Ponding Allowed ........ NO
    Water Quality .......... NO
  Infiltration Method ...... HORTON
  Flow Routing Method ...... DYNWAVE
  Surcharge Method ......... EXTRAN
  Starting Date ............ 08/28/2015 08:00:00
  Ending Date .............. 08/28/2015 15:50:00
  Antecedent Dry Days ...... 8.0
  Report Time Step ......... 00:01:00
  Wet Time Step ............ 00:01:00
  Dry Time Step ............ 00:01:00
  Routing Time Step ........ 5.00 sec
  Variable Time Step ....... YES
  Maximum Trials ........... 8
  Number of Threads ........ 4
  Head Tolerance ........... 0.001500 m
  
  
  **************************        Volume         Depth
  Runoff Quantity Continuity     hectare-m            mm
  **************************     ---------       -------
  Total Precipitation ......         2.984         6.533
  Evaporation Loss .........         0.000         0.000
  Infiltration Loss ........         0.753         1.648
  Surface Runoff ...........         1.324         2.899
  Final Storage ............         0.907         1.987
  Continuity Error (%) .....        -0.018
  
  
  **************************        Volume        Volume
  Flow Routing Continuity        hectare-m      10^6 ltr
  **************************     ---------     ---------
  Dry Weather Inflow .......         0.616         6.165
  Wet Weather Inflow .......         1.323        13.234
  Groundwater Inflow .......         0.000         0.000
  RDII Inflow ..............         0.000         0.000
  External Inflow ..........         0.102         1.024
  External Outflow .........         1.810        18.102
  Flooding Loss ............         0.017         0.169
  Evaporation Loss .........         0.000         0.000
  Exfiltration Loss ........         0.000         0.000
  Initial Stored Volume ....         0.076         0.761
  Final Stored Volume ......         0.409         4.087
  Continuity Error (%) .....        -5.549
  
  
  *************************
  Highest Continuity Errors
  *************************
  Node JK-storage (-28.38%)
  Node HS02004842 (26.48%)
  Node YS02001884 (20.74%)
  Node YS02001774 (13.89%)
  Node YSB1171 (6.19%)
  
  
  ***************************
  Time-Step Critical Elements
  ***************************
  Link WS02006252WS02006251 (48.03%)
  Link 3 (40.42%)
  Link WS02006238WS02006235 (4.54%)
  Link WS02006280WS02006229 (1.78%)
  Link WS02006229WS02006228 (1.20%)
  
  
  ********************************
  Highest Flow Instability Indexes
  ********************************
  Link WS02006113WS02006111 (40)
  Link WS02006111WS02006112 (23)
  Link YS02006558YS02006561 (15)
  Link YS02001629YS02163301 (12)
  Link YS02164001YS02001641 (12)
  
  
  *************************
  Routing Time Step Summary
  *************************
  Minimum Time Step           :     0.06 sec
  Average Time Step           :     0.85 sec
  Maximum Time Step           :     5.00 sec
  Percent in Steady State     :    -0.00
  Average Iterations per Step :     3.42
  Percent Not Converging      :    16.56
  
  
  ***************************
  Subcatchment Runoff Summary
  ***************************
  
  ------------------------------------------------------------------------------------------------------------------------------
                            Total      Total      Total      Total     Imperv       Perv      Total       Total     Peak  Runoff
                           Precip      Runon       Evap      Infil     Runoff     Runoff     Runoff      Runoff   Runoff   Coeff
  Subcatchment                 mm         mm         mm         mm         mm         mm         mm    10^6 ltr      LPS
  ------------------------------------------------------------------------------------------------------------------------------
  sub0                       6.53       0.00       0.00       0.46       4.81       0.00       4.81        0.00     1.70   0.736
  sub1                       6.53       0.00       0.00       0.72       4.56       0.00       4.56        0.03     8.92   0.698
  sub2                       6.53       0.00       0.00       2.42       3.21       0.00       3.21        0.03     7.90   0.491
  sub3                       6.53       0.00       0.00       2.42       3.17       0.00       3.17        0.07    16.25   0.486
  sub4                       6.53       0.00       0.00       0.72       4.42       0.00       4.42        0.09    18.23   0.676
  sub5                       6.53       0.00       0.00       0.46       4.76       0.00       4.76        0.05    15.87   0.729
  sub7                       6.53       0.00       0.00       0.59       4.69       0.00       4.69        0.02     5.60   0.718
  sub8                       6.53       0.00       0.00       0.59       4.68       0.00       4.68        0.03     9.88   0.717
  sub9                       6.53       0.00       0.00       0.59       4.68       0.00       4.68        0.02     7.33   0.716
  sub10                      6.53       0.00       0.00       0.52       4.72       0.00       4.72        0.05    15.85   0.722
  sub11                      6.53       0.00       0.00       0.52       4.74       0.00       4.74        0.06    18.60   0.725
  sub12                      6.53       0.00       0.00       0.85       4.49       0.00       4.49        0.04    15.74   0.688
  sub14                      6.53       0.00       0.00       0.59       4.68       0.00       4.68        0.04    14.32   0.716
  sub15                      6.53       0.00       0.00       1.96       3.59       0.00       3.59        0.06    19.42   0.550
  sub16                      6.53       0.00       0.00       2.16       3.46       0.00       3.46        0.04    13.85   0.529
  sub17                      6.53       0.00       0.00       2.09       3.51       0.00       3.51        0.03    11.18   0.537
  sub22                      6.53       0.00       0.00       2.81       2.94       0.00       2.94        0.19    63.64   0.449
  sub23                      6.53       0.00       0.00       2.42       3.25       0.00       3.25        0.15    54.16   0.497
  sub60                      6.53       0.00       0.00       0.78       3.24       0.00       3.24        0.98    93.37   0.497
  sub61                      6.53       0.00       0.00       1.11       3.44       0.00       3.44        1.06   116.86   0.527
  sub62                      6.53       0.00       0.00       0.52       3.70       0.00       3.70        1.14   119.50   0.567
  sub63                      6.53       0.00       0.00       1.89       3.06       0.00       3.06        0.93   108.99   0.468
  sub64                      6.53       0.00       0.00       0.98       3.10       0.00       3.10        0.94    88.71   0.475
  sub65                      6.53       0.00       0.00       0.85       3.14       0.00       3.14        0.97    90.05   0.481
  sub66                      6.53       0.00       0.00       1.89       2.70       0.00       2.70        0.83    81.23   0.414
  sub67                      6.53       0.00       0.00       0.52       4.05       0.00       4.05        1.25   153.14   0.619
  sub68                      6.53       0.00       0.00       0.91       3.66       0.00       3.66        1.13   129.14   0.560
  sub69                      6.53       0.00       0.00       0.98       3.92       0.00       3.92        0.92   128.07   0.601
  sub70                      6.53       4.01       0.00       3.58       4.89       0.00       4.89        1.12   104.96   0.464
  sub71                      6.53       0.00       0.00       0.52       3.55       0.00       3.55        0.84    83.47   0.543
  sub72                      6.53       0.00       0.00       0.46       2.55       0.00       2.55        0.52    39.79   0.390
  sub73                      6.53       4.76       0.00       3.84       5.03       0.00       5.03        1.18    90.59   0.445
  sub74                      6.53       0.00       0.00       4.90       1.18       0.00       1.18        0.47    71.42   0.181
  
  
  ******************
  Node Depth Summary
  ******************
  
  ---------------------------------------------------------------------------------
                                 Average  Maximum  Maximum  Time of Max    Reported
                                   Depth    Depth      HGL   Occurrence   Max Depth
  Node                 Type       Meters   Meters   Meters  days hr:min      Meters
  ---------------------------------------------------------------------------------
  WS02001211           JUNCTION     0.67     0.77     5.61     0  07:50        0.77
  WS02001212           JUNCTION     0.39     0.48     5.54     0  03:11        0.48
  WS02001213           JUNCTION     0.63     0.72     5.49     0  03:11        0.72
  WS02003069           JUNCTION     0.44     0.54     5.12     0  03:13        0.54
  WS02003072           JUNCTION     0.51     0.60     4.97     0  03:13        0.60
  WS02003073           JUNCTION     0.31     0.37     4.43     0  03:14        0.37
  WS02003060           JUNCTION     0.40     0.48     5.41     0  03:12        0.47
  WS02003066           JUNCTION     0.23     0.30     5.85     0  02:42        0.30
  WS02003059           JUNCTION     0.68     0.78     5.46     0  03:12        0.78
  WS02003067           JUNCTION     0.57     0.70     6.02     0  02:41        0.70
  WS02004401           JUNCTION     0.68     0.85     6.85     0  02:38        0.85
  WS02004402           JUNCTION     0.71     0.87     6.83     0  02:38        0.87
  WS02004403           JUNCTION     0.73     0.89     6.82     0  02:38        0.89
  WS02004404           JUNCTION     0.80     0.96     6.81     0  02:39        0.96
  WS02004406           JUNCTION     0.81     0.95     6.78     0  02:39        0.95
  WS02004409           JUNCTION     0.49     0.66     6.43     0  02:42        0.66
  WS02004410           JUNCTION     0.51     0.68     6.40     0  02:42        0.68
  WS02004411           JUNCTION     0.53     0.69     6.37     0  02:42        0.69
  WS02004412           JUNCTION     0.54     0.70     6.34     0  02:42        0.70
  WS02004413           JUNCTION     0.70     0.85     6.32     0  02:42        0.85
  WS02004405           JUNCTION     0.80     0.95     6.80     0  02:39        0.95
  WS02006109           JUNCTION     0.76     0.97     7.59     0  02:33        0.97
  WS02006110           JUNCTION     0.75     0.92     7.51     0  02:34        0.92
  WS02006111           JUNCTION     0.22     0.29     6.99     0  02:34        0.29
  WS02006112           JUNCTION     0.85     1.05     6.93     0  02:36        1.05
  WS02006113           JUNCTION     0.34     0.45     7.35     0  02:34        0.45
  WS02006115           JUNCTION     0.57     0.75     6.89     0  02:38        0.75
  WS02006116           JUNCTION     0.65     0.83     6.87     0  02:38        0.83
  WS02006230           JUNCTION     0.73     1.02     7.76     0  02:34        1.02
  WS02006231           JUNCTION     0.49     0.69     7.81     0  02:33        0.69
  WS02006232           JUNCTION     0.62     0.81     7.85     0  02:33        0.81
  WS02006234           JUNCTION     0.55     0.75     7.91     0  02:41        0.75
  WS02006235           JUNCTION     0.58     0.79     7.95     0  02:41        0.79
  WS02006238           JUNCTION     0.60     0.82     7.96     0  02:41        0.82
  WS02006240           JUNCTION     0.50     0.74     8.03     0  02:40        0.74
  WS02006242           JUNCTION     0.56     0.81     8.08     0  02:40        0.81
  WS02006243           JUNCTION     0.44     0.70     8.12     0  02:40        0.70
  WS02006245           JUNCTION     0.42     0.67     8.15     0  02:40        0.67
  WS02006247           JUNCTION     0.44     0.68     8.18     0  02:38        0.68
  WS02006248           JUNCTION     0.39     0.61     8.20     0  02:35        0.61
  WS02006249           JUNCTION     0.42     0.62     8.22     0  02:35        0.62
  WS02006239           JUNCTION     0.56     0.79     8.00     0  02:40        0.79
  WS02006251           JUNCTION     0.41     0.66     8.33     0  02:34        0.66
  WS02006252           JUNCTION     0.37     0.59     8.84     0  04:58        0.59
  WS02006253           JUNCTION     0.43     0.68     8.33     0  02:34        0.68
  WS02006256           JUNCTION     1.04     2.35     9.28     0  00:00        1.21
  WS02004138           JUNCTION     0.16     0.19     7.44     0  00:40        0.19
  WS02004407           JUNCTION     0.22     0.29     6.61     0  02:39        0.29
  WS02006228           JUNCTION     0.75     1.01     7.66     0  02:33        1.01
  WS02006229           JUNCTION     0.73     1.01     7.70     0  02:33        1.01
  WS02006280           JUNCTION     0.06     0.16     8.43     0  02:17        0.16
  WS02006284           JUNCTION     0.35     0.50     8.90     0  02:16        0.50
  WS02006287           JUNCTION     0.08     0.23     9.19     0  02:16        0.23
  WSF200               JUNCTION     0.22     0.30     5.54     0  02:51        0.30
  HS02004901           JUNCTION     0.11     0.25    10.07     0  02:14        0.25
  HS02004881           JUNCTION     0.01     0.03     9.06     0  02:16        0.03
  HS02004876           JUNCTION     0.04     0.11     9.14     0  02:13        0.11
  HS02004870           JUNCTION     0.01     0.05     9.33     0  02:17        0.05
  HS02004862           JUNCTION     0.01     0.05     9.44     0  02:17        0.05
  HS02004856           JUNCTION     0.07     0.11     9.53     0  02:17        0.11
  HS02004852           JUNCTION     0.01     0.03     9.54     0  02:18        0.03
  HS02004848           JUNCTION     0.01     0.03     9.63     0  02:16        0.03
  HS02004842           JUNCTION     0.33     0.36     9.63     0  02:16        0.36
  HS02004837           JUNCTION     0.03     0.05     9.63     0  02:16        0.05
  HS02004830           JUNCTION     0.04     0.07     9.53     0  02:17        0.07
  HS02004824           JUNCTION     0.02     0.04     9.45     0  02:20        0.04
  HS02004817           JUNCTION     0.43     0.54     9.39     0  02:17        0.54
  HS02004807           JUNCTION     0.11     0.22     9.39     0  02:17        0.22
  HS02004802           JUNCTION     0.15     0.25     9.38     0  02:17        0.25
  HS02004799           JUNCTION     0.10     0.28     9.49     0  02:15        0.28
  HS02004792           JUNCTION     0.02     0.11     9.63     0  02:14        0.11
  HS02004788           JUNCTION     0.02     0.08     9.98     0  02:15        0.08
  HS02004785           JUNCTION     0.04     0.15    10.05     0  02:14        0.15
  HS02004777           JUNCTION     0.13     0.27    10.07     0  02:14        0.27
  HS02004770           JUNCTION     0.10     0.24    10.07     0  02:14        0.24
  HS02004480           JUNCTION     0.07     0.22     9.46     0  02:15        0.22
  HS02004479           JUNCTION     0.10     0.26     9.46     0  02:15        0.26
  HS02004478           JUNCTION     0.05     0.14     9.37     0  02:16        0.14
  YS02001745           JUNCTION     0.17     0.36     7.88     0  06:02        0.34
  YS02001748           JUNCTION     0.54     0.79     7.86     0  06:07        0.77
  YS02001751           JUNCTION     0.72     1.31     8.19     0  06:03        1.05
  YS02001754           JUNCTION     0.98     1.47     8.07     0  06:03        1.31
  YS02001762           JUNCTION     1.17     1.67     8.07     0  04:26        1.52
  YS02001765           JUNCTION     1.13     1.69     8.14     0  04:26        1.48
  YS02001767           JUNCTION     1.09     1.72     8.21     0  04:26        1.44
  YS02001770           JUNCTION     1.08     1.82     8.31     0  04:26        1.45
  YS02001774           JUNCTION     1.15     1.91     8.33     0  04:26        1.53
  YS02001779           JUNCTION     0.90     1.68     8.37     0  04:25        1.27
  YS02001882           JUNCTION     0.31     0.51     7.22     0  02:50        0.51
  YS02001884           JUNCTION     0.40     0.61     7.22     0  02:50        0.61
  YS02001759           JUNCTION     1.21     1.61     7.98     0  04:26        1.54
  YS02001887           JUNCTION     0.48     0.68     7.22     0  02:49        0.68
  YS02001890           JUNCTION     0.51     0.71     7.22     0  02:50        0.71
  YS02001898           JUNCTION     0.28     0.47     7.20     0  02:49        0.47
  YS02001901           JUNCTION     0.40     0.60     7.20     0  02:49        0.60
  YS02001904           JUNCTION     0.38     0.57     7.20     0  02:51        0.57
  YS02001907           JUNCTION     0.71     0.91     7.20     0  02:48        0.91
  YS02001910           JUNCTION     0.50     0.70     7.20     0  02:48        0.70
  YS02001915           JUNCTION     0.29     0.48     7.20     0  02:48        0.48
  YS02001918           JUNCTION     0.09     0.13     7.20     0  02:49        0.13
  YS02001619           JUNCTION     0.68     0.91     7.84     0  06:10        0.91
  YS02001629           JUNCTION     1.04     1.30     7.85     0  06:11        1.30
  YS02001641           JUNCTION     1.14     1.49     7.93     0  03:59        1.41
  YS02001644           JUNCTION     1.15     1.53     7.96     0  04:00        1.42
  YS02001652           JUNCTION     0.99     1.65     8.24     0  03:59        1.24
  YS02001655           JUNCTION     0.75     2.00     8.85     0  04:00        1.01
  YS02001920           JUNCTION     0.18     0.23     7.23     0  03:01        0.23
  YS02001923           JUNCTION     0.07     0.09     7.35     0  03:01        0.09
  YS02001926           JUNCTION     0.15     0.19     7.63     0  03:01        0.19
  YS02001929           JUNCTION     0.07     0.10     7.79     0  03:01        0.10
  YS02001658           JUNCTION     0.48     0.71     7.85     0  06:12        0.69
  YS02001661           JUNCTION     0.26     0.44     7.85     0  06:06        0.43
  YS02001664           JUNCTION     0.07     0.13     8.05     0  02:43        0.13
  YS02001622           JUNCTION     0.71     0.93     7.83     0  06:07        0.93
  YS02001633           JUNCTION     1.13     1.43     7.89     0  04:26        1.39
  YS02001649           JUNCTION     1.18     1.62     8.01     0  04:00        1.46
  YS02001757           JUNCTION     1.31     1.66     7.92     0  06:09        1.63
  YS02001895           JUNCTION     0.27     0.47     7.21     0  02:49        0.47
  YS02001625           JUNCTION     0.99     1.23     7.83     0  06:11        1.22
  YS02163301           JUNCTION     1.07     1.35     7.87     0  04:26        1.33
  YS02163601           JUNCTION     1.18     1.52     7.91     0  04:00        1.45
  YS02164001           JUNCTION     1.12     1.47     7.93     0  04:00        1.39
  YS02001647           JUNCTION     0.98     1.39     8.00     0  03:59        1.24
  YSB1154              JUNCTION     0.24     0.40     9.46     0  02:15        0.40
  YSB6556              JUNCTION     0.14     0.29     9.46     0  02:15        0.29
  YSB1174              JUNCTION     0.19     0.35     9.46     0  02:15        0.35
  YSB1171              JUNCTION     0.39     0.56     9.46     0  02:15        0.56
  YS02006553           JUNCTION     0.71     0.92     7.20     0  02:48        0.92
  YS02006561           JUNCTION     0.15     0.25     6.91     0  02:48        0.25
  YS02006556           JUNCTION     0.68     0.88     7.20     0  02:48        0.88
  YS02006558           JUNCTION     0.73     0.93     7.19     0  02:51        0.93
  YS02001783           JUNCTION     0.26     0.45     6.59     0  02:52        0.45
  YS02001784           JUNCTION     0.30     0.48     6.54     0  02:49        0.48
  YS02001786           JUNCTION     0.25     0.40     6.43     0  02:49        0.40
  YS02001788           JUNCTION     0.18     0.31     6.28     0  02:50        0.31
  YS02001790           JUNCTION     0.22     0.37     6.02     0  02:50        0.37
  YS02001791           JUNCTION     0.15     0.24     5.71     0  02:50        0.24
  YS02001793           JUNCTION     0.09     0.14     4.97     0  02:24        0.14
  WS02004139           JUNCTION     0.61     0.72     5.63     0  07:50        0.72
  WSC                  OUTFALL      0.31     0.37     1.04     0  03:14        0.36
  3                    OUTFALL      0.09     0.23     6.23     0  00:00        0.20
  4                    OUTFALL      0.02     0.12     7.12     0  02:35        0.12
  5                    OUTFALL      0.00     0.00     5.00     0  00:00        0.00
  JK-storage           STORAGE      0.38     3.37     4.17     0  02:43        3.37
  CC-storage           STORAGE      0.54     0.81     7.81     0  06:08        0.81
  XR-storage           STORAGE      6.71     7.72     5.72     0  03:38        7.72
  
  
  *******************
  Node Inflow Summary
  *******************
  
  -------------------------------------------------------------------------------------------------
                                  Maximum  Maximum                  Lateral       Total        Flow
                                  Lateral    Total  Time of Max      Inflow      Inflow     Balance
                                   Inflow   Inflow   Occurrence      Volume      Volume       Error
  Node                 Type           LPS      LPS  days hr:min    10^6 ltr    10^6 ltr     Percent
  -------------------------------------------------------------------------------------------------
  WS02001211           JUNCTION      7.35   387.63     0  07:50       0.207        7.21       0.577
  WS02001212           JUNCTION      0.00   387.57     0  00:50           0        7.16       0.322
  WS02001213           JUNCTION      0.00   387.57     0  07:50           0        7.14       0.385
  WS02003069           JUNCTION      0.32   817.80     0  03:12     0.00902        14.7       0.229
  WS02003072           JUNCTION      0.00   817.04     0  03:13           0        14.6       0.277
  WS02003073           JUNCTION      1.82   818.55     0  03:14      0.0514        14.6       0.318
  WS02003060           JUNCTION     16.53   817.85     0  03:12       0.466        14.7       0.218
  WS02003066           JUNCTION      0.00   532.43     0  02:42           0        7.14       0.060
  WS02003059           JUNCTION      0.00   387.65     0  07:50           0        7.12       0.577
  WS02003067           JUNCTION      0.00   532.42     0  02:42           0        7.15       0.128
  WS02004401           JUNCTION      0.00   536.01     0  02:36           0        7.38       0.284
  WS02004402           JUNCTION      0.00   535.47     0  02:38           0        7.36       0.269
  WS02004403           JUNCTION      0.00   535.26     0  02:38           0        7.34       0.245
  WS02004404           JUNCTION      0.16   535.22     0  02:38     0.00457        7.33       0.184
  WS02004406           JUNCTION      0.00   535.29     0  02:39           0        7.29       0.450
  WS02004409           JUNCTION      0.00   534.83     0  02:39           0        7.25       0.217
  WS02004410           JUNCTION      0.00   533.73     0  02:39           0        7.24       0.246
  WS02004411           JUNCTION      0.00   532.94     0  02:40           0        7.22       0.254
  WS02004412           JUNCTION      0.00   532.59     0  02:40           0         7.2       0.275
  WS02004413           JUNCTION      0.00   532.47     0  02:42           0        7.18       0.410
  WS02004405           JUNCTION      0.04   535.21     0  02:39     0.00107        7.31       0.279
  WS02006109           JUNCTION      1.23   535.86     0  02:34      0.0347        7.47       0.292
  WS02006110           JUNCTION      0.00   535.87     0  02:34           0        7.45       0.259
  WS02006111           JUNCTION      0.00   555.55     0  02:34           0        7.42       0.055
  WS02006112           JUNCTION     11.18   547.61     0  02:34      0.0301        7.45       0.367
  WS02006113           JUNCTION      0.00   535.98     0  02:34           0        7.43       0.127
  WS02006115           JUNCTION      0.00   544.91     0  02:34           0        7.42       0.266
  WS02006116           JUNCTION      0.00   538.27     0  02:34           0         7.4       0.257
  WS02006230           JUNCTION     10.28   398.08     0  04:08        0.29        6.47       0.207
  WS02006231           JUNCTION      0.00   387.83     0  04:07           0        6.19       0.163
  WS02006232           JUNCTION      0.00   387.83     0  04:07           0         6.2       0.253
  WS02006234           JUNCTION      0.00   387.92     0  04:07           0        6.21       0.118
  WS02006235           JUNCTION      0.00   387.93     0  04:07           0        6.25       0.168
  WS02006238           JUNCTION      0.00   315.67     0  06:41           0        4.35       0.169
  WS02006240           JUNCTION      0.00   324.76     0  02:30           0        4.34       0.257
  WS02006242           JUNCTION      0.00   334.47     0  02:31           0        4.35       0.317
  WS02006243           JUNCTION      0.00   339.35     0  02:31           0        4.34      -0.132
  WS02006245           JUNCTION      0.00   343.11     0  02:31           0        4.35       0.251
  WS02006247           JUNCTION      0.00   349.00     0  02:30           0        4.36       0.152
  WS02006248           JUNCTION      0.00   355.38     0  02:30           0        4.36       0.072
  WS02006249           JUNCTION      0.00   437.79     0  02:31           0        4.79       0.240
  WS02006239           JUNCTION      0.00   315.65     0  06:40           0        4.34       0.251
  WS02006251           JUNCTION      0.08   439.61     0  02:30     0.00217        4.82       0.181
  WS02006252           JUNCTION      0.00   400.00     0  02:30           0        4.63       0.009
  WS02006253           JUNCTION      1.70    49.96     0  02:16     0.00389       0.194       1.975
  WS02006256           JUNCTION      0.00   600.00     0  00:00           0        5.03       0.041
  WS02004138           JUNCTION      0.00   380.00     0  00:40           0        7.04       0.080
  WS02004407           JUNCTION      0.00   534.99     0  02:39           0        7.26       0.098
  WS02006228           JUNCTION      0.00   534.62     0  02:34           0        7.45       0.204
  WS02006229           JUNCTION      0.00   535.04     0  02:33           0        7.46       0.164
  WS02006280           JUNCTION      0.00   252.63     0  02:17           0        1.01       0.007
  WS02006284           JUNCTION      0.10   252.63     0  02:16      0.0027        1.01       0.107
  WS02006287           JUNCTION      0.00   252.52     0  02:16           0        1.01       0.072
  WSF200               JUNCTION      0.00   532.44     0  02:42           0        7.14       0.056
  HS02004901           JUNCTION     13.85    13.85     0  02:09      0.0362      0.0363       5.082
  HS02004881           JUNCTION      5.60    48.65     0  02:16      0.0158       0.167       0.179
  HS02004876           JUNCTION      8.92    43.39     0  02:16      0.0303       0.152       0.350
  HS02004870           JUNCTION      9.88    34.64     0  02:16      0.0299       0.122       0.088
  HS02004862           JUNCTION      8.10    25.40     0  02:17      0.0355      0.0919       0.185
  HS02004856           JUNCTION      7.33    17.37     0  02:16      0.0225      0.0578       2.560
  HS02004852           JUNCTION      0.00    10.50     0  02:16           0      0.0353       0.146
  HS02004848           JUNCTION     16.25    16.25     0  02:19      0.0714      0.0714       0.061
  HS02004842           JUNCTION      0.00     6.34     0  02:29           0      0.0491      36.015
  HS02004837           JUNCTION     22.20    27.47     0  02:16       0.231       0.267       0.305
  HS02004830           JUNCTION      0.15    27.60     0  02:16     0.00423       0.258       0.481
  HS02004824           JUNCTION     18.28    45.65     0  02:19      0.0935        0.35       0.154
  HS02004817           JUNCTION      0.60    46.25     0  02:20      0.0169       0.366       4.768
  HS02004807           JUNCTION     18.60    63.20     0  02:18       0.055       0.405       1.056
  HS02004802           JUNCTION      0.00    63.61     0  02:19           0         0.4       1.024
  HS02004799           JUNCTION     14.32   161.53     0  02:14      0.0445       0.531       0.430
  HS02004792           JUNCTION     63.92   147.50     0  02:14       0.193       0.487       0.084
  HS02004788           JUNCTION     21.09    85.79     0  02:14       0.109       0.295       0.131
  HS02004785           JUNCTION      0.15    65.07     0  02:14     0.00423       0.188       0.258
  HS02004777           JUNCTION      0.03    65.41     0  02:13    0.000846       0.188       2.825
  HS02004770           JUNCTION     54.16    66.68     0  02:11       0.155       0.189       1.662
  HS02004480           JUNCTION      0.00   190.52     0  02:15           0       0.621       0.120
  HS02004479           JUNCTION      0.00    29.57     0  02:16           0       0.103       0.716
  HS02004478           JUNCTION      0.00   252.50     0  02:16           0        1.01       0.061
  YS02001745           JUNCTION     93.38   152.95     0  05:56       0.983        1.11       0.123
  YS02001748           JUNCTION      0.04   305.36     0  04:38     0.00127        1.39       0.662
  YS02001751           JUNCTION      0.01   319.87     0  04:39     0.00031        1.27       1.043
  YS02001754           JUNCTION      0.26   153.41     0  03:27     0.00733        1.01       1.608
  YS02001762           JUNCTION      0.00   129.65     0  03:01           0        1.08       1.949
  YS02001765           JUNCTION      0.00   136.44     0  02:33           0        1.08       2.228
  YS02001767           JUNCTION      0.54   130.90     0  02:38      0.0151         1.1       3.214
  YS02001770           JUNCTION    119.65   142.27     0  03:02        1.14        1.22       2.432
  YS02001774           JUNCTION      0.00    50.43     0  02:13           0        0.18      16.131
  YS02001779           JUNCTION      0.01    50.38     0  03:44    0.000141      0.0817      13.040
  YS02001882           JUNCTION      0.00     4.83     0  02:06           0     0.00618      39.667
  YS02001884           JUNCTION      0.00    13.80     0  02:05           0      0.0243      26.170
  YS02001759           JUNCTION    116.90   244.34     0  02:54        1.06        2.11       1.083
  YS02001887           JUNCTION    153.59   154.22     0  02:44        1.26        1.27       0.580
  YS02001890           JUNCTION      0.00   154.21     0  02:44           0        1.25       0.648
  YS02001898           JUNCTION      0.00   153.47     0  02:44           0        1.23       0.190
  YS02001901           JUNCTION      0.00   153.45     0  02:43           0        1.23       0.464
  YS02001904           JUNCTION      0.00   152.84     0  02:42           0        1.23       0.431
  YS02001907           JUNCTION      0.00   277.21     0  02:51           0        2.65       0.849
  YS02001910           JUNCTION      0.00   126.92     0  02:57           0        1.43       0.731
  YS02001915           JUNCTION     83.49   126.09     0  02:54       0.838        1.43       0.333
  YS02001918           JUNCTION      0.00    42.82     0  03:02           0       0.597       0.207
  YS02001619           JUNCTION     81.23   100.43     0  04:28       0.828       0.837       0.970
  YS02001629           JUNCTION      0.00   190.04     0  04:07           0       0.825       2.668
  YS02001641           JUNCTION      0.00   170.42     0  02:42           0        1.65       1.282
  YS02001644           JUNCTION     88.75   258.97     0  02:41       0.944        2.56       1.023
  YS02001652           JUNCTION      0.00   166.73     0  03:19           0       0.964       2.011
  YS02001655           JUNCTION      0.15   310.34     0  03:59     0.00434        1.12       1.422
  YS02001920           JUNCTION      2.87    42.66     0  03:01      0.0809       0.599       0.362
  YS02001923           JUNCTION      0.04    39.79     0  03:01     0.00106       0.518       0.064
  YS02001926           JUNCTION      0.05    39.83     0  03:01     0.00147        0.52       0.453
  YS02001929           JUNCTION     39.79    39.79     0  03:01       0.519       0.519       0.063
  YS02001658           JUNCTION      0.00   272.61     0  04:04           0        1.31       0.730
  YS02001661           JUNCTION      0.00   195.00     0  03:57           0        1.13       0.186
  YS02001664           JUNCTION    108.99   108.99     0  02:43       0.926       0.926       0.011
  YS02001622           JUNCTION      0.00   128.61     0  04:30           0       0.892       2.600
  YS02001633           JUNCTION     90.25   184.39     0  02:37       0.972         1.7       1.876
  YS02001649           JUNCTION      0.00   380.32     0  02:59           0        3.41       1.084
  YS02001757           JUNCTION      0.00   682.53     0  02:57           0        6.36       1.461
  YS02001895           JUNCTION      0.00   152.94     0  02:46           0        1.24       0.315
  YS02001625           JUNCTION      0.00   190.96     0  04:05           0       0.921       4.091
  YS02163301           JUNCTION      0.00   100.21     0  02:37           0       0.755       3.181
  YS02163601           JUNCTION      0.11   174.17     0  03:04      0.0031        1.66       1.819
  YS02164001           JUNCTION      0.00   172.88     0  03:04           0        1.64       1.194
  YS02001647           JUNCTION      0.00   263.48     0  02:41           0        2.52       0.948
  YSB1154              JUNCTION     15.87    15.87     0  02:14      0.0539      0.0553       2.682
  YSB6556              JUNCTION      0.00    15.85     0  02:16           0      0.0562       2.267
  YSB1174              JUNCTION     15.74    15.74     0  02:08      0.0392      0.0403       3.290
  YSB1171              JUNCTION      0.00    29.52     0  02:14           0       0.102       6.602
  YS02006553           JUNCTION      0.00   276.90     0  02:55           0        2.64       0.550
  YS02006561           JUNCTION      0.00   423.20     0  02:51           0        3.74       0.008
  YS02006556           JUNCTION      0.00   277.02     0  02:53           0        2.65       0.398
  YS02006558           JUNCTION    130.02   406.10     0  02:48        1.15        3.77       0.133
  YS02001783           JUNCTION      0.00   405.79     0  02:48           0        3.74       0.044
  YS02001784           JUNCTION      1.06   406.44     0  02:52      0.0299        3.76       0.072
  YS02001786           JUNCTION      0.06   406.37     0  02:52     0.00159        3.76       0.070
  YS02001788           JUNCTION      0.07   406.53     0  02:49       0.002        3.76       0.040
  YS02001790           JUNCTION      0.15   406.92     0  02:50     0.00437        3.77       0.050
  YS02001791           JUNCTION      0.00   406.59     0  02:50           0        3.76       0.025
  YS02001793           JUNCTION      0.00   406.64     0  02:50           0        3.76       0.009
  WS02004139           JUNCTION      0.32   380.46     0  00:40     0.00905        7.04       0.630
  WSC                  OUTFALL       0.00   817.78     0  03:14           0        14.6       0.000
  3                    OUTFALL       0.00   597.65     0  00:00           0         3.1       0.000
  4                    OUTFALL       0.00   148.15     0  02:35           0       0.419       0.000
  5                    OUTFALL       0.00     0.00     0  00:00           0           0       0.000 ltr
  JK-storage           STORAGE       0.00   406.63     0  02:50           0        3.91     -22.106
  CC-storage           STORAGE       0.00   682.87     0  02:57           0        6.25       0.558
  XR-storage           STORAGE     351.12   351.12     0  02:52        7.29        7.89      -0.002
  
  
  **********************
  Node Surcharge Summary
  **********************
  
  Surcharging occurs when water rises above the top of the highest conduit.
  ---------------------------------------------------------------------
                                               Max. Height   Min. Depth
                                   Hours       Above Crown    Below Rim
  Node                 Type      Surcharged         Meters       Meters
  ---------------------------------------------------------------------
  WS02006109           JUNCTION        2.02          0.150        1.670
  WS02006110           JUNCTION        0.17          0.011        1.839
  WS02006112           JUNCTION        0.39          0.049        1.631
  WS02006232           JUNCTION        2.16          0.115        1.365
  WS02006234           JUNCTION        0.30          0.033        1.207
  WS02006235           JUNCTION        1.02          0.078        1.212
  WS02006238           JUNCTION        1.62          0.096        1.334
  WS02006240           JUNCTION        0.25          0.029        1.361
  WS02006242           JUNCTION        1.12          0.076        0.744
  WS02006239           JUNCTION        0.44          0.048        1.242
  WS02006252           JUNCTION        2.26          0.193        0.907
  WS02006256           JUNCTION        0.01          1.050        0.000
  WS02006228           JUNCTION        1.80          0.178        2.022
  YS02001751           JUNCTION        0.02          0.312        0.888
  YS02001754           JUNCTION        3.35          0.417        0.733
  YS02001762           JUNCTION        5.31          0.666        0.484
  YS02001765           JUNCTION        5.26          0.686        0.414
  YS02001767           JUNCTION        5.20          0.725        0.305
  YS02001770           JUNCTION        5.05          0.785        0.135
  YS02001774           JUNCTION        5.30          0.911        0.139
  YS02001779           JUNCTION        2.61          0.680        0.000
  YS02001759           JUNCTION        5.34          0.613        0.597
  YS02001641           JUNCTION        5.28          0.493        0.607
  YS02001644           JUNCTION        5.29          0.527        0.393
  YS02001652           JUNCTION        3.69          0.619        0.511
  YS02001655           JUNCTION        0.03          1.004        0.196
  YS02001633           JUNCTION        5.25          0.415        0.645
  YS02001649           JUNCTION        5.32          0.618        0.432
  YS02001757           JUNCTION        5.43          0.663        0.547
  YS02001625           JUNCTION        4.04          0.228        0.552
  YS02163301           JUNCTION        5.14          0.350        0.680
  YS02163601           JUNCTION        5.32          0.516        0.564
  YS02164001           JUNCTION        5.26          0.473        0.627
  YS02001647           JUNCTION        3.89          0.389        0.511
  
  
  *********************
  Node Flooding Summary
  *********************
  
  Flooding refers to all water that overflows a node, whether it ponds or not.
  --------------------------------------------------------------------------
                                                             Total   Maximum
                                 Maximum   Time of Max       Flood    Ponded
                        Hours       Rate    Occurrence      Volume     Depth
  Node                 Flooded       LPS   days hr:min    10^6 ltr    Meters
  --------------------------------------------------------------------------
  WS02006256              0.01    406.11      0  00:00       0.001     0.000
  YS02001779              0.01     13.84      0  04:25       0.000     0.000
  XR-storage              0.86    201.24      0  04:00       0.169     0.000
  
  
  **********************
  Storage Volume Summary
  **********************
  
  --------------------------------------------------------------------------------------------------
                         Average     Avg  Evap Exfil       Maximum     Max    Time of Max    Maximum
                          Volume    Pcnt  Pcnt  Pcnt        Volume    Pcnt     Occurrence    Outflow
  Storage Unit           1000 m3    Full  Loss  Loss       1000 m3    Full    days hr:min        LPS
  --------------------------------------------------------------------------------------------------
  JK-storage               0.019       6     0     0         0.169      58       0  02:43     600.00
  CC-storage               1.514      10     0     0         2.262      14       0  06:08     400.00
  XR-storage               0.805      87     0     0         0.926     100       0  03:38     380.00
  
  
  ***********************
  Outfall Loading Summary
  ***********************
  
  -----------------------------------------------------------
                         Flow       Avg       Max       Total
                         Freq      Flow      Flow      Volume
  Outfall Node           Pcnt       LPS       LPS    10^6 ltr
  -----------------------------------------------------------
  WSC                   99.99    600.06    817.78      14.582
  3                     83.75    184.18    597.65       3.100
  4                     36.14     51.45    148.15       0.419
  5                      0.00      0.00      0.00       0.000
  -----------------------------------------------------------
  System                54.97    835.70   1300.04      18.102
  
  
  ********************
  Link Flow Summary
  ********************
  
  -----------------------------------------------------------------------------
                                 Maximum  Time of Max   Maximum    Max/    Max/
                                  |Flow|   Occurrence   |Veloc|    Full    Full
  Link                 Type          LPS  days hr:min     m/sec    Flow   Depth
  -----------------------------------------------------------------------------
  WS02003066WSF200     CONDUIT    532.44     0  02:42      2.78    0.09    0.23
  WS02006287WS02006284 CONDUIT    252.53     0  02:16      1.74    0.12    0.24
  WS02006284WS02006280 CONDUIT    252.63     0  02:17      1.98    0.11    0.22
  WS02006280WS02006229 CONDUIT    252.64     0  02:17      3.18    0.05    0.16
  WS02006229WS02006228 CONDUIT    534.62     0  02:34      1.06    1.77    1.00
  WS02006256WS02006235 CONDUIT    177.52     0  00:01      2.73    1.88    1.00
  WS02006253WS02006251 CONDUIT     53.05     0  02:17      0.53    0.16    0.95
  WS02006252WS02006251 CONDUIT    400.41     0  06:30      3.19    1.47    1.00
  WS02006251WS02006249 CONDUIT    437.79     0  02:31      1.23    1.26    0.91
  WS02006249WS02006248 CONDUIT    355.38     0  02:30      1.15    1.95    0.87
  WS02006248WS02006247 CONDUIT    349.00     0  02:30      1.11    0.76    0.91
  WS02006247WS02006245 CONDUIT    343.11     0  02:31      1.06    2.72    0.95
  WS02006245WS02006243 CONDUIT    339.35     0  02:31      1.06    1.00    0.97
  WS02006243WS02006242 CONDUIT    334.47     0  02:31      0.92    0.71    1.00
  WS02006242WS02006240 CONDUIT    324.76     0  02:30      0.86    1.29    1.00
  WS02006240WS02006239 CONDUIT    315.65     0  06:40      0.87    0.99    1.00
  WS02006239WS02006238 CONDUIT    315.67     0  06:41      0.84    1.01    1.00
  WS02006238WS02006235 CONDUIT    315.67     0  06:41      1.32    0.70    1.00
  WS02006235WS02006234 CONDUIT    387.92     0  04:07      1.02    4.09    1.00
  WS02006234WS02006232 CONDUIT    387.83     0  04:07      1.17    0.78    1.00
  WS02006232WS02006231 CONDUIT    387.83     0  04:07      1.05    0.81    0.98
  WS02006231WS02006230 CONDUIT    387.80     0  04:08      1.33    5.88    0.94
  WS02006230WS02006229 CONDUIT    398.16     0  04:10      1.03    8.86    1.00
  WS02006228WS02006109 CONDUIT    534.63     0  02:34      1.06    2.34    1.00
  WS02006116WS02004401 CONDUIT    536.01     0  02:36      0.77    0.74    0.84
  WS02006115WS02006116 CONDUIT    538.27     0  02:34      0.86    0.69    0.76
  WS02006113WS02006111 CONDUIT    555.55     0  02:34      2.45    0.67    0.46
  WS02006112WS02006115 CONDUIT    544.91     0  02:34      0.76    0.32    0.87
  WS02006111WS02006112 CONDUIT    542.01     0  02:34      1.51    0.26    0.67
  WS02006110WS02006113 CONDUIT    535.98     0  02:34      1.27    0.49    0.78
  WS02006109WS02006110 CONDUIT    535.87     0  02:34      1.07    1.03    1.00
  WS02004411WS02004412 CONDUIT    532.59     0  02:40      0.92    0.76    0.69
  WS02004401WS02004402 CONDUIT    535.47     0  02:38      0.74    0.64    0.86
  WS02004413WS02003067 CONDUIT    532.42     0  02:42      1.10    0.23    0.59
  WS02004412WS02004413 CONDUIT    532.47     0  02:42      0.82    0.36    0.78
  WS02004410WS02004411 CONDUIT    532.94     0  02:40      0.93    0.73    0.68
  WS02004409WS02004410 CONDUIT    533.73     0  02:39      0.96    0.69    0.67
  WS02004407WS02004409 CONDUIT    534.83     0  02:39      1.45    0.19    0.48
  WS02004406WS02004407 CONDUIT    534.99     0  02:39      1.04    0.24    0.62
  WS02004405WS02004406 CONDUIT    535.29     0  02:39      0.69    1.06    0.95
  WS02004404WS02004405 CONDUIT    535.17     0  02:39      0.69    5.24    0.96
  WS02004403WS02004404 CONDUIT    535.06     0  02:38      0.71    0.39    0.93
  WS02004402WS02004403 CONDUIT    535.26     0  02:38      0.73    0.77    0.88
  WS02004139WS02001211 CONDUIT    380.28     0  07:50      0.80    0.48    0.58
  WS02004138WS02004139 CONDUIT    380.14     0  00:40      3.34    0.08    0.43
  WS02003067WS02003066 CONDUIT    532.43     0  02:42      1.20    0.17    0.41
  WS02001213WS02003059 CONDUIT    387.65     0  07:50      0.80    0.64    0.74
  WS02001212WS02001213 CONDUIT    387.57     0  07:50      1.32    0.60    0.44
  WS02001211WS02001212 CONDUIT    387.57     0  00:50      0.78    0.30    0.62
  WS02003072WS02003073 CONDUIT    816.73     0  03:14      1.64    1.76    0.45
  WS02003069WS02003072 CONDUIT    817.04     0  03:13      1.55    0.39    0.47
  WS02003060WS02003069 CONDUIT    817.48     0  03:12      1.80    0.32    0.42
  WS02003059WS02003060 CONDUIT    387.76     0  07:50      0.95    0.25    0.63
  HS02004901HS02004770 CONDUIT     12.85     0  02:13      0.05    0.05    0.35
  HS02004876HS02004881 CONDUIT     43.52     0  02:16      0.66    0.46    0.09
  HS02004870HS02004876 CONDUIT     34.61     0  02:17      0.46    0.02    0.11
  HS02004842HS02004848 CONDUIT      6.34     0  02:29      0.03    0.00    0.28
  HS02004837HS02004842 CONDUIT      6.57     0  02:30      0.41    0.00    0.30
  HS02004830HS02004837 CONDUIT     27.45     0  02:16      0.47    0.03    0.08
  HS02004824HS02004830 CONDUIT     27.59     0  02:17      0.51    0.04    0.08
  HS02004817HS02004824 CONDUIT     45.65     0  02:20      0.17    0.02    0.42
  HS02004770HS02004777 CONDUIT     65.38     0  02:13      0.26    0.12    0.36
  HS02004799HS02004480 CONDUIT    161.24     0  02:14      0.66    0.20    0.35
  HS02004792HS02004799 CONDUIT    147.40     0  02:14      0.76    0.09    0.28
  HS02004788HS02004792 CONDUIT     85.72     0  02:15      0.90    0.06    0.14
  HS02004785HS02004788 CONDUIT     64.98     0  02:15      0.57    0.49    0.16
  HS02004777HS02004785 CONDUIT     64.92     0  02:14      0.31    0.08    0.29
  HS02004480HS02004478 CONDUIT    190.43     0  02:15      1.05    0.80    0.26
  HS02004479HS02004480 CONDUIT     29.84     0  02:17      0.16    0.03    0.34
  HS02004862HS02004870 CONDUIT     25.36     0  02:17      0.51    0.03    0.07
  HS02004848HS02004852 CONDUIT     10.50     0  02:16      0.34    0.01    0.04
  HS02004856HS02004862 CONDUIT     17.33     0  02:17      0.38    0.02    0.07
  HS02004852HS02004856 CONDUIT     10.46     0  02:18      0.15    0.01    0.10
  HS02004802HS02004478 CONDUIT     64.12     0  02:20      0.33    0.06    0.28
  HS02004478WS02006287 CONDUIT    252.52     0  02:16      1.43    0.07    0.20
  HS02004817HS02004807 CONDUIT     46.98     0  02:21      0.13    0.03    0.54
  HS02004807HS02004802 CONDUIT     63.61     0  02:19      0.28    0.12    0.33
  YS02001759YS02001757 CONDUIT    244.12     0  03:01      0.31    0.17    1.00
  YS02001762YS02001759 CONDUIT    130.22     0  03:01      0.18    0.15    1.00
  YS02001765YS02001762 CONDUIT    129.65     0  03:01      0.23    0.12    1.00
  YS02001770YS02001767 CONDUIT    130.36     0  02:38      0.33    0.52    1.00
  YS02001774YS02001770 CONDUIT     50.43     0  02:13      0.14    0.03    1.00
  YS02001779YS02001774 CONDUIT     50.38     0  03:44      0.09    0.03    1.00
  YS02001649YS02001757 CONDUIT    380.69     0  02:59      0.48    0.23    1.00
  YS02001767YS02001765 CONDUIT    136.44     0  02:33      0.26    0.17    1.00
  YS02006561YS02001783 CONDUIT    405.79     0  02:48      1.91    0.21    0.44
  YS02001783YS02001784 CONDUIT    405.38     0  02:52      1.34    0.56    0.58
  YS02001784YS02001785 CONDUIT    406.32     0  02:52      1.44    0.95    0.55
  YS02001788YS02001790 CONDUIT    406.77     0  02:50      2.00    0.30    0.42
  YS02001790YS02001791 CONDUIT    406.59     0  02:50      2.30    0.44    0.38
  YS02001791YS02001793 CONDUIT    406.64     0  02:50      4.75    0.17    0.23
  YS02001910YS02001907 CONDUIT    127.37     0  03:01      0.49    0.07    0.80
  YS02001786YS02001788 CONDUIT    406.46     0  02:49      1.89    0.78    0.44
  YS02001915YS02001910 CONDUIT    126.92     0  02:57      0.44    0.06    0.59
  YS02001918YS02001915 CONDUIT     44.24     0  03:06      0.44    0.02    0.31
  YS02001923YS02001920 CONDUIT     39.79     0  03:01      0.50    0.02    0.16
  YS02001926YS02001923 CONDUIT     39.76     0  03:01      0.54    0.06    0.15
  YS02001929YS02001926 CONDUIT     39.78     0  03:01      0.58    0.02    0.14
  YS02001920YS02001918 CONDUIT     42.82     0  03:02      0.50    0.04    0.18
  YS02001629YS02163301 CONDUIT    100.21     0  02:37      0.13    0.12    1.00
  YS02001619YS02001622 CONDUIT    128.61     0  04:30      0.70    0.19    0.92
  YS02001622YS02001625 CONDUIT    190.96     0  04:05      0.28    0.10    0.96
  YS02001625YS02001629 CONDUIT    190.04     0  04:07      0.27    0.09    0.96
  YS02163301YS02001633 CONDUIT     99.46     0  02:37      0.13    0.09    1.00
  YS02163601YS02164001 CONDUIT    172.88     0  03:04      0.22    0.15    1.00
  YS02164001YS02001641 CONDUIT    170.42     0  02:42      0.22    0.23    1.00
  YS02001641YS02001644 CONDUIT    173.52     0  02:39      0.22    0.56    1.00
  YS02001647YS02001649 CONDUIT    285.36     0  03:04      0.37    0.15    1.00
  YS02006553YS02006556 CONDUIT    277.02     0  02:53      0.38    0.24    0.88
  YS02006556YS02006558 CONDUIT    277.14     0  03:04      0.37    0.22    0.91
  YSB6556YSB1171       CONDUIT     16.15     0  02:17      0.07    0.02    0.61
  YS02001907YS02006553 CONDUIT    276.90     0  02:55      0.31    0.33    0.99
  YS02006558YS02006561 CONDUIT    423.20     0  02:51      2.57    0.94    0.57
  YS02001633YS02163601 CONDUIT    174.06     0  03:04      0.22    0.18    1.00
  YS02001644YS02001647 CONDUIT    263.48     0  02:41      0.34    0.15    1.00
  YS02001745YS02001748 CONDUIT    203.54     0  04:40      1.48    0.08    0.51
  YS02001748YS02001751 CONDUIT    300.87     0  04:39      1.15    0.15    0.87
  YS02001751YS02001754 CONDUIT    153.15     0  03:27      1.01    0.07    1.00
  YS02001754YS02001757 CONDUIT    148.29     0  04:15      0.33    0.06    1.00
  YS02001882YS02001884 CONDUIT      4.83     0  02:06      0.06    0.01    0.53
  YS02001884YS02001887 CONDUIT     13.80     0  02:05      0.06    0.02    0.62
  YS02001890YS02001895 CONDUIT    152.94     0  02:46      0.32    0.07    0.59
  YS02001895YS02001898 CONDUIT    153.47     0  02:44      0.50    0.27    0.45
  YS02001898YS02001901 CONDUIT    153.45     0  02:43      0.37    0.10    0.53
  YS02001901YS02001904 CONDUIT    152.84     0  02:42      0.32    0.24    0.58
  YS02001904YS02001907 CONDUIT    152.96     0  02:45      0.25    0.05    0.74
  YS02001887YS02001890 CONDUIT    154.21     0  02:44      0.28    0.26    0.67
  YS02001652YS02001649 CONDUIT    135.65     0  03:04      0.35    0.07    1.00
  YS02001655YS02001652 CONDUIT    166.73     0  03:19      1.08    0.08    1.00
  YS02001658YS02001655 CONDUIT    288.40     0  04:00      1.33    0.12    0.84
  YS02001661YS02001658 CONDUIT    272.61     0  04:04      1.54    0.11    0.52
  YS02001664YS02001661 CONDUIT    108.99     0  02:43      1.24    0.03    0.25
  YSB1154YSB6556       CONDUIT     15.85     0  02:16      0.19    0.03    0.50
  YSB1174YSB1171       CONDUIT     14.63     0  02:10      0.06    0.02    0.61
  YSB1171HS02004479    CONDUIT     29.57     0  02:16      0.54    0.02    0.48
  HS02004881HS02006253 CONDUIT     48.65     0  02:16      1.81    0.01    0.26
  YS02001793JiankangQianchi CONDUIT    406.63     0  02:50     13.17    0.03    0.56
  YS02001757CaochengTiaoxuchi CONDUIT    682.87     0  02:57      1.55    0.30    0.91
  WSF200WS02003060     CONDUIT    532.74     0  02:41      1.86    0.12    0.32
  1                    CONDUIT    817.78     0  03:14      3.15    0.28    0.37
  2                    CONDUIT    148.15     0  02:35      5.40    0.35    0.41
  3                    CONDUIT    597.65     0  00:00     10.05    0.95    0.86
  4                    CONDUIT      0.00     0  00:00      0.00    0.00    0.00
  CC-Pump-1            PUMP       200.00     0  02:30              1.00
  CC-Pump-2            PUMP       200.00     0  02:30              1.00
  JK-Pump-1            PUMP       300.00     0  00:00              1.00
  JK-Pump-2            PUMP       300.00     0  00:00              1.00
  XR-Pump-1            PUMP        95.00     0  00:00              1.00
  XR-Pump-2            PUMP        95.00     0  00:00              1.00
  XR-Pump-3            PUMP        95.00     0  00:00              1.00
  XR-Pump-4            PUMP        95.00     0  00:40              1.00
  
  
  ***************************
  Flow Classification Summary
  ***************************
  
  -------------------------------------------------------------------------------------
                      Adjusted    ---------- Fraction of Time in Flow Class ---------- 
                       /Actual         Up    Down  Sub   Sup   Up    Down  Norm  Inlet 
  Conduit               Length    Dry  Dry   Dry   Crit  Crit  Crit  Crit  Ltd   Ctrl  
  -------------------------------------------------------------------------------------
  WS02003066WSF200        1.00   0.04  0.03  0.00  0.00  0.93  0.00  0.00  0.63  0.00
  WS02006287WS02006284    1.00   0.03  0.01  0.00  0.68  0.27  0.00  0.00  0.77  0.00
  WS02006284WS02006280    1.00   0.04  0.00  0.00  0.00  0.00  0.00  0.96  0.00  0.00
  WS02006280WS02006229    1.00   0.04  0.00  0.00  0.00  0.00  0.00  0.96  0.00  0.00
  WS02006229WS02006228    1.00   0.00  0.00  0.00  0.98  0.00  0.00  0.02  0.00  0.00
  WS02006256WS02006235    1.00   0.00  0.00  0.00  1.00  0.00  0.00  0.00  0.00  0.00
  WS02006253WS02006251    1.00   0.02  0.01  0.00  0.96  0.00  0.00  0.00  0.00  0.00
  WS02006252WS02006251    1.00   0.07  0.00  0.00  0.00  0.00  0.92  0.00  0.00  0.00
  WS02006251WS02006249    1.00   0.00  0.00  0.00  1.00  0.00  0.00  0.00  0.27  0.00
  WS02006249WS02006248    1.00   0.00  0.02  0.00  0.90  0.00  0.08  0.00  0.00  0.00
  WS02006248WS02006247    1.00   0.02  0.00  0.00  0.97  0.00  0.00  0.01  0.18  0.00
  WS02006247WS02006245    1.00   0.02  0.00  0.00  0.96  0.00  0.00  0.02  0.00  0.00
  WS02006245WS02006243    1.00   0.02  0.00  0.00  0.94  0.00  0.00  0.04  0.02  0.00
  WS02006243WS02006242    1.00   0.01  0.00  0.00  0.99  0.00  0.00  0.00  0.27  0.00
  WS02006242WS02006240    1.00   0.01  0.00  0.00  0.99  0.00  0.00  0.00  0.00  0.00
  WS02006240WS02006239    1.00   0.00  0.00  0.00  0.95  0.00  0.00  0.04  0.02  0.00
  WS02006239WS02006238    1.00   0.00  0.00  0.00  1.00  0.00  0.00  0.00  0.00  0.00
  WS02006238WS02006235    1.00   0.00  0.00  0.00  1.00  0.00  0.00  0.00  0.00  0.00
  WS02006235WS02006234    1.00   0.00  0.00  0.00  0.95  0.00  0.05  0.00  0.00  0.00
  WS02006234WS02006232    1.00   0.00  0.00  0.00  1.00  0.00  0.00  0.00  0.09  0.00
  WS02006232WS02006231    1.00   0.00  0.00  0.00  0.99  0.00  0.01  0.00  0.00  0.00
  WS02006231WS02006230    1.00   0.00  0.00  0.00  0.59  0.00  0.41  0.00  0.00  0.00
  WS02006230WS02006229    1.00   0.00  0.00  0.00  0.98  0.00  0.00  0.02  0.01  0.00
  WS02006228WS02006109    1.00   0.00  0.00  0.00  1.00  0.00  0.00  0.00  0.00  0.00
  WS02006116WS02004401    1.00   0.02  0.00  0.00  0.98  0.00  0.00  0.00  0.00  0.00
  WS02006115WS02006116    1.00   0.02  0.00  0.00  0.97  0.00  0.00  0.01  0.01  0.00
  WS02006113WS02006111    1.00   0.02  0.00  0.00  0.00  0.98  0.00  0.00  0.10  0.00
  WS02006112WS02006115    1.00   0.02  0.00  0.00  0.98  0.00  0.00  0.00  0.00  0.00
  WS02006111WS02006112    1.00   0.02  0.00  0.00  0.98  0.00  0.00  0.00  0.98  0.00
  WS02006110WS02006113    1.00   0.01  0.00  0.00  0.98  0.00  0.00  0.00  0.00  0.00
  WS02006109WS02006110    1.00   0.00  0.01  0.00  0.98  0.00  0.00  0.00  0.00  0.00
  WS02004411WS02004412    1.00   0.05  0.00  0.00  0.95  0.00  0.00  0.00  0.00  0.00
  WS02004401WS02004402    1.00   0.02  0.00  0.00  0.98  0.00  0.00  0.00  0.00  0.00
  WS02004413WS02003067    1.00   0.05  0.01  0.00  0.00  0.00  0.94  0.00  0.00  0.00
  WS02004412WS02004413    1.00   0.05  0.00  0.00  0.95  0.00  0.00  0.00  0.03  0.00
  WS02004410WS02004411    1.00   0.05  0.00  0.00  0.95  0.00  0.00  0.00  0.01  0.00
  WS02004409WS02004410    1.00   0.05  0.00  0.00  0.95  0.00  0.00  0.00  0.00  0.00
  WS02004407WS02004409    1.00   0.05  0.00  0.00  0.95  0.00  0.00  0.00  0.80  0.00
  WS02004406WS02004407    1.00   0.00  0.05  0.00  0.95  0.00  0.00  0.00  0.00  0.00
  WS02004405WS02004406    1.00   0.00  0.00  0.00  1.00  0.00  0.00  0.00  0.02  0.00
  WS02004404WS02004405    1.00   0.00  0.00  0.00  1.00  0.00  0.00  0.00  0.00  0.00
  WS02004403WS02004404    1.00   0.00  0.02  0.00  0.98  0.00  0.00  0.00  0.02  0.00
  WS02004402WS02004403    1.00   0.02  0.00  0.00  0.98  0.00  0.00  0.00  0.00  0.00
  WS02004139WS02001211    1.00   0.00  0.00  0.00  0.99  0.00  0.01  0.00  0.00  0.00
  WS02004138WS02004139    1.00   0.00  0.00  0.00  0.99  0.01  0.00  0.00  1.00  0.00
  WS02003067WS02003066    1.00   0.06  0.00  0.00  0.93  0.00  0.00  0.00  0.00  0.00
  WS02001213WS02003059    1.00   0.00  0.00  0.00  0.99  0.00  0.00  0.00  0.00  0.00
  WS02001212WS02001213    1.00   0.01  0.00  0.00  0.85  0.00  0.14  0.00  0.00  0.00
  WS02001211WS02001212    1.00   0.00  0.00  0.00  1.00  0.00  0.00  0.00  0.00  0.00
  WS02003072WS02003073    1.00   0.00  0.00  0.00  0.00  0.00  0.00  1.00  0.00  0.00
  WS02003069WS02003072    1.00   0.00  0.00  0.00  0.99  0.01  0.00  0.00  0.22  0.00
  WS02003060WS02003069    1.00   0.00  0.00  0.00  0.98  0.02  0.00  0.00  0.12  0.00
  WS02003059WS02003060    1.00   0.00  0.00  0.00  0.99  0.01  0.00  0.00  0.01  0.00
  HS02004901HS02004770    1.00   0.04  0.00  0.00  0.96  0.00  0.00  0.00  0.02  0.00
  HS02004876HS02004881    1.00   0.02  0.00  0.00  0.98  0.00  0.00  0.00  0.00  0.00
  HS02004870HS02004876    1.00   0.01  0.00  0.00  0.99  0.00  0.00  0.00  0.95  0.00
  HS02004842HS02004848    1.00   0.00  0.04  0.00  0.96  0.00  0.00  0.00  0.68  0.00
  HS02004837HS02004842    1.00   0.00  0.00  0.00  0.99  0.01  0.00  0.00  0.11  0.00
  HS02004830HS02004837    1.00   0.00  0.00  0.00  1.00  0.00  0.00  0.00  0.99  0.00
  HS02004824HS02004830    1.00   0.00  0.00  0.00  1.00  0.00  0.00  0.00  0.00  0.00
  HS02004817HS02004824    1.00   0.00  0.00  0.00  1.00  0.00  0.00  0.00  1.00  0.00
  HS02004770HS02004777    1.00   0.00  0.04  0.00  0.96  0.00  0.00  0.00  0.07  0.00
  HS02004799HS02004480    1.00   0.00  0.02  0.00  0.95  0.00  0.03  0.00  0.00  0.00
  HS02004792HS02004799    1.00   0.00  0.00  0.00  0.99  0.01  0.00  0.00  0.98  0.00
  HS02004788HS02004792    1.00   0.00  0.00  0.00  0.99  0.01  0.00  0.00  0.98  0.00
  HS02004785HS02004788    1.00   0.00  0.00  0.00  1.00  0.00  0.00  0.00  0.00  0.00
  HS02004777HS02004785    1.00   0.00  0.00  0.00  1.00  0.00  0.00  0.00  0.20  0.00
  HS02004480HS02004478    1.00   0.04  0.00  0.00  0.73  0.00  0.00  0.23  0.00  0.00
  HS02004479HS02004480    1.00   0.02  0.00  0.00  0.98  0.00  0.00  0.00  0.16  0.00
  HS02004862HS02004870    1.00   0.00  0.00  0.00  1.00  0.00  0.00  0.00  0.06  0.00
  HS02004848HS02004852    1.00   0.04  0.00  0.00  0.96  0.00  0.00  0.00  0.71  0.00
  HS02004856HS02004862    1.00   0.00  0.06  0.00  0.94  0.00  0.00  0.00  0.74  0.00
  HS02004852HS02004856    1.00   0.04  0.01  0.00  0.96  0.00  0.00  0.00  0.83  0.00
  HS02004802HS02004478    1.00   0.04  0.00  0.00  0.96  0.00  0.00  0.00  0.01  0.00
  HS02004478WS02006287    1.00   0.05  0.00  0.00  0.86  0.09  0.00  0.00  0.75  0.00
  HS02004817HS02004807    1.00   0.00  0.04  0.00  0.96  0.00  0.00  0.00  0.00  0.00
  HS02004807HS02004802    1.00   0.04  0.00  0.00  0.96  0.00  0.00  0.00  0.01  0.00
  YS02001759YS02001757    1.00   0.00  0.00  0.00  1.00  0.00  0.00  0.00  0.17  0.00
  YS02001762YS02001759    1.00   0.00  0.00  0.00  1.00  0.00  0.00  0.00  0.04  0.00
  YS02001765YS02001762    1.00   0.00  0.00  0.00  1.00  0.00  0.00  0.00  0.22  0.00
  YS02001770YS02001767    1.00   0.00  0.00  0.00  1.00  0.00  0.00  0.00  0.00  0.00
  YS02001774YS02001770    1.00   0.00  0.04  0.00  0.95  0.00  0.00  0.00  0.06  0.00
  YS02001779YS02001774    1.00   0.00  0.00  0.00  1.00  0.00  0.00  0.00  0.26  0.00
  YS02001649YS02001757    1.00   0.00  0.00  0.00  1.00  0.00  0.00  0.00  0.19  0.00
  YS02001767YS02001765    1.00   0.00  0.00  0.00  1.00  0.00  0.00  0.00  0.01  0.00
  YS02006561YS02001783    1.00   0.06  0.00  0.00  0.00  0.94  0.00  0.00  0.64  0.00
  YS02001783YS02001784    1.00   0.00  0.06  0.00  0.94  0.00  0.00  0.00  0.00  0.00
  YS02001784YS02001785    1.00   0.00  0.00  0.00  1.00  0.00  0.00  0.00  0.25  0.00
  YS02001788YS02001790    1.00   0.00  0.00  0.00  0.06  0.94  0.00  0.00  0.72  0.00
  YS02001790YS02001791    1.00   0.00  0.00  0.00  0.02  0.98  0.00  0.00  0.61  0.00
  YS02001791YS02001793    1.00   0.00  0.00  0.00  0.00  1.00  0.00  0.00  0.00  0.00
  YS02001910YS02001907    1.00   0.00  0.00  0.00  0.98  0.00  0.00  0.02  0.13  0.00
  YS02001786YS02001788    1.00   0.00  0.00  0.00  0.07  0.93  0.00  0.00  0.00  0.00
  YS02001915YS02001910    1.00   0.00  0.00  0.00  1.00  0.00  0.00  0.00  0.24  0.00
  YS02001918YS02001915    1.00   0.00  0.01  0.00  0.99  0.00  0.00  0.00  0.72  0.00
  YS02001923YS02001920    1.00   0.00  0.00  0.00  1.00  0.00  0.00  0.00  1.00  0.00
  YS02001926YS02001923    1.00   0.00  0.03  0.00  0.00  0.00  0.97  0.00  0.00  0.00
  YS02001929YS02001926    1.00   0.00  0.04  0.00  0.96  0.00  0.00  0.00  0.87  0.00
  YS02001920YS02001918    1.00   0.00  0.01  0.00  0.99  0.00  0.00  0.00  0.00  0.00
  YS02001629YS02163301    1.00   0.05  0.00  0.00  0.94  0.00  0.00  0.00  0.00  0.00
  YS02001619YS02001622    1.00   0.04  0.00  0.00  0.96  0.00  0.00  0.00  0.00  0.00
  YS02001622YS02001625    1.00   0.04  0.00  0.00  0.96  0.00  0.00  0.00  0.12  0.00
  YS02001625YS02001629    1.00   0.04  0.02  0.00  0.92  0.00  0.01  0.00  0.00  0.00
  YS02163301YS02001633    1.00   0.00  0.05  0.00  0.95  0.00  0.00  0.00  0.00  0.00
  YS02163601YS02164001    1.00   0.00  0.03  0.00  0.97  0.00  0.00  0.00  0.00  0.00
  YS02164001YS02001641    1.00   0.01  0.02  0.00  0.97  0.00  0.00  0.00  0.07  0.00
  YS02001641YS02001644    1.00   0.00  0.01  0.00  0.99  0.00  0.00  0.00  0.00  0.00
  YS02001647YS02001649    1.00   0.00  0.06  0.00  0.94  0.00  0.00  0.00  0.01  0.00
  YS02006553YS02006556    1.00   0.02  0.00  0.00  0.98  0.00  0.00  0.00  0.03  0.00
  YS02006556YS02006558    1.00   0.00  0.00  0.00  1.00  0.00  0.00  0.00  0.00  0.00
  YSB6556YSB1171          1.00   0.02  0.01  0.00  0.96  0.00  0.00  0.00  0.00  0.00
  YS02001907YS02006553    1.00   0.00  0.01  0.00  0.98  0.00  0.00  0.00  0.00  0.00
  YS02006558YS02006561    1.00   0.06  0.00  0.00  0.00  0.94  0.00  0.00  0.64  0.00
  YS02001633YS02163601    1.00   0.00  0.01  0.00  0.99  0.00  0.00  0.00  0.20  0.00
  YS02001644YS02001647    1.00   0.00  0.06  0.00  0.94  0.00  0.00  0.00  0.00  0.00
  YS02001745YS02001748    1.00   0.00  0.00  0.00  0.88  0.01  0.00  0.10  0.17  0.00
  YS02001748YS02001751    1.00   0.00  0.00  0.00  0.98  0.02  0.00  0.00  0.23  0.00
  YS02001751YS02001754    1.00   0.00  0.00  0.00  0.93  0.00  0.00  0.06  0.01  0.00
  YS02001754YS02001757    1.00   0.00  0.00  0.00  0.99  0.01  0.00  0.00  0.26  0.00
  YS02001882YS02001884    1.00   0.05  0.00  0.00  0.95  0.00  0.00  0.00  0.00  0.00
  YS02001884YS02001887    1.00   0.02  0.01  0.00  0.97  0.00  0.00  0.00  0.00  0.00
  YS02001890YS02001895    1.00   0.00  0.05  0.00  0.94  0.00  0.00  0.00  0.00  0.00
  YS02001895YS02001898    1.00   0.06  0.00  0.00  0.94  0.00  0.01  0.00  0.00  0.00
  YS02001898YS02001901    1.00   0.05  0.00  0.00  0.94  0.00  0.00  0.00  0.02  0.00
  YS02001901YS02001904    1.00   0.05  0.00  0.00  0.95  0.00  0.00  0.00  0.00  0.00
  YS02001904YS02001907    1.00   0.00  0.05  0.00  0.95  0.00  0.00  0.00  0.00  0.00
  YS02001887YS02001890    1.00   0.00  0.00  0.00  0.98  0.00  0.02  0.00  0.00  0.00
  YS02001652YS02001649    1.00   0.00  0.00  0.00  1.00  0.00  0.00  0.00  0.25  0.00
  YS02001655YS02001652    1.00   0.00  0.00  0.00  0.93  0.00  0.00  0.06  0.02  0.00
  YS02001658YS02001655    1.00   0.00  0.05  0.00  0.93  0.03  0.00  0.00  0.09  0.00
  YS02001661YS02001658    1.00   0.05  0.00  0.00  0.88  0.07  0.00  0.00  0.17  0.00
  YS02001664YS02001661    1.00   0.04  0.00  0.00  0.72  0.24  0.00  0.00  0.86  0.00
  YSB1154YSB6556          1.00   0.04  0.00  0.00  0.96  0.00  0.00  0.00  0.02  0.00
  YSB1174YSB1171          1.00   0.02  0.01  0.00  0.97  0.00  0.00  0.00  0.00  0.00
  YSB1171HS02004479       1.00   0.02  0.00  0.00  0.98  0.00  0.00  0.00  0.13  0.00
  HS02004881HS02006253    1.00   0.02  0.00  0.00  0.76  0.02  0.00  0.20  0.58  0.00
  YS02001793JiankangQianchi    1.00   0.00  0.00  0.00  0.24  0.75  0.00  0.00  0.22  0.00
  YS02001757CaochengTiaoxuchi    1.00   0.00  0.07  0.00  0.93  0.00  0.00  0.00  0.00  0.00
  WSF200WS02003060        1.00   0.00  0.04  0.00  0.79  0.17  0.00  0.00  0.37  0.00
  1                       1.00   0.00  0.00  0.00  0.00  1.00  0.00  0.00  0.31  0.00
  2                       1.00   0.63  0.00  0.00  0.00  0.36  0.00  0.00  0.09  0.00
  3                       1.00   0.16  0.00  0.00  0.00  0.84  0.00  0.00  0.01  0.00
  4                       1.00   1.00  0.00  0.00  0.00  0.00  0.00  0.00  0.00  0.00
  
  
  *************************
  Conduit Surcharge Summary
  *************************
  
  ----------------------------------------------------------------------------
                                                           Hours        Hours 
                         --------- Hours Full --------   Above Full   Capacity
  Conduit                Both Ends  Upstream  Dnstream   Normal Flow   Limited
  ----------------------------------------------------------------------------
  WS02006229WS02006228        1.80      2.21      1.80      4.15         1.80
  WS02006256WS02006235        5.67      5.67      7.17      2.62         0.01
  WS02006252WS02006251        1.24      1.24      2.26      2.00         0.01
  WS02006251WS02006249        0.01      0.01      0.01      1.24         0.01
  WS02006249WS02006248        0.01      0.01      0.01      4.22         0.01
  WS02006247WS02006245        0.01      0.01      0.01      4.59         0.01
  WS02006245WS02006243        0.01      0.01      0.01      0.01         0.01
  WS02006243WS02006242        0.01      0.01      1.12      0.01         0.01
  WS02006242WS02006240        0.25      0.25      1.64      2.32         0.01
  WS02006240WS02006239        0.28      0.28      0.44      0.01         0.01
  WS02006239WS02006238        1.45      1.45      1.62      0.18         0.19
  WS02006238WS02006235        1.40      1.40      2.03      0.01         0.01
  WS02006235WS02006234        0.30      0.30      1.02      5.69         0.01
  WS02006234WS02006232        0.35      0.35      2.16      0.01         0.01
  WS02006232WS02006231        0.01      0.01      2.16      0.01         0.01
  WS02006231WS02006230        0.01      0.01      0.01      5.65         0.01
  WS02006230WS02006229        3.09      3.77      3.09      5.72         3.09
  WS02006228WS02006109        2.02      2.71      2.02      5.21         2.02
  WS02006112WS02006115        0.01      0.01      0.39      0.01         0.01
  WS02006111WS02006112        0.01      0.01      4.46      0.01         0.01
  WS02006110WS02006113        0.01      0.01      2.46      0.01         0.01
  WS02006109WS02006110        0.17      0.17      2.71      0.18         0.01
  WS02004405WS02004406        0.01      0.01      0.01      0.29         0.01
  WS02004404WS02004405        0.01      0.01      0.01      5.65         0.01
  WS02003072WS02003073        0.01      0.01      0.01      5.24         0.01
  YS02001759YS02001757        5.34      5.34      5.43      0.01         0.01
  YS02001762YS02001759        5.31      5.31      5.34      0.01         0.02
  YS02001765YS02001762        5.26      5.26      5.31      0.01         0.01
  YS02001770YS02001767        5.19      5.19      5.20      0.01         0.92
  YS02001774YS02001770        5.05      5.05      5.30      0.01         0.01
  YS02001779YS02001774        2.61      2.61      5.30      0.01         0.01
  YS02001649YS02001757        5.32      5.32      5.43      0.01         0.01
  YS02001767YS02001765        5.20      5.20      5.26      0.01         0.02
  YS02001629YS02163301        5.00      5.00      5.14      0.01         0.01
  YS02001622YS02001625        0.01      0.01      4.04      0.01         0.01
  YS02001625YS02001629        0.01      0.01      4.04      0.01         0.01
  YS02163301YS02001633        5.14      5.14      5.27      0.01         0.01
  YS02163601YS02164001        5.26      5.26      5.32      0.01         0.01
  YS02164001YS02001641        5.26      5.26      5.28      0.01         0.01
  YS02001641YS02001644        5.28      5.28      5.29      0.01         0.50
  YS02001647YS02001649        3.89      3.89      5.32      0.01         0.01
  YS02001907YS02006553        0.01      0.01      0.53      0.01         0.01
  YS02001633YS02163601        5.25      5.25      5.32      0.01         0.01
  YS02001644YS02001647        3.89      3.89      5.29      0.01         0.01
  YS02001748YS02001751        0.01      0.01      0.02      0.01         0.01
  YS02001751YS02001754        0.02      0.02      3.35      0.01         0.01
  YS02001754YS02001757        3.94      3.94      5.43      0.01         0.01
  YS02001652YS02001649        4.23      4.23      5.32      0.01         0.01
  YS02001655YS02001652        0.03      0.03      3.68      0.01         0.01
  YS02001658YS02001655        0.01      0.01      0.03      0.01         0.01
  YS02001793JiankangQianchi        0.01      0.01      0.76      0.01         0.01
  YS02001757CaochengTiaoxuchi        0.01      0.01      5.43      0.01         0.01
  3                           0.01      0.01      0.01      0.01         0.01
  
  
  ***************
  Pumping Summary
  ***************
  
  ---------------------------------------------------------------------------------------------------------
                                                  Min       Avg       Max     Total     Power    % Time Off
                        Percent   Number of      Flow      Flow      Flow    Volume     Usage    Pump Curve
  Pump                 Utilized   Start-Ups       LPS       LPS       LPS  10^6 ltr     Kw-hr    Low   High
  ---------------------------------------------------------------------------------------------------------
  CC-Pump-1               58.60           8      0.00    133.82    200.00     2.231      6.57    0.0   12.9
  CC-Pump-2               57.45           4      0.00    148.95    200.00     2.400      7.40    0.0   16.1
  JK-Pump-1               74.46           6      0.00    146.23    300.00     2.395     43.55    0.0    0.0
  JK-Pump-2               85.10           6      0.00    151.96    300.00     2.629     48.31    0.0    0.0
  XR-Pump-1               93.61           6      0.00     83.50     95.00     2.109     18.84    0.0    0.0
  XR-Pump-2               93.61           8      0.00     64.03     95.00     1.710     16.18    0.0    0.0
  XR-Pump-3               87.23           7      0.00     70.71     95.00     1.710     14.50    0.0    0.0
  XR-Pump-4               80.83           8      0.00     64.50     95.00     1.510     14.79    0.0    0.0
  

  Analysis begun on:  Tue Dec 21 13:45:38 2021
  Analysis ended on:  Tue Dec 21 13:45:42 2021
  Total elapsed time: 00:00:04