
  EPA STORM WATER MANAGEMENT MODEL - VERSION 5.1 (Build 5.3.0.dev0)
  --------------------------------------------------------------

  WARNING 04: minimum elevation drop used for Conduit WS02004404WS02004405
  WARNING 03: negative offset ignored for Link YS02001904YS02001907
  
  *********************************************************
  NOTE: The summary statistics displayed in this report are
  based on results found at every computational time step,  
  not just on results from each reporting time step.
  *********************************************************
  
  ****************
  Analysis Options
  ****************
  Flow Units ............... LPS
  Process Models:
    Rainfall/Runoff ........ YES
    RDII ................... NO
    Snowmelt ............... NO
    Groundwater ............ NO
    Flow Routing ........... YES
    Ponding Allowed ........ NO
    Water Quality .......... NO
  Infiltration Method ...... HORTON
  Flow Routing Method ...... DYNWAVE
  Surcharge Method ......... EXTRAN
  Starting Date ............ 08/28/2015 08:00:00
  Ending Date .............. 08/28/2015 15:50:00
  Antecedent Dry Days ...... 8.0
  Report Time Step ......... 00:01:00
  Wet Time Step ............ 00:01:00
  Dry Time Step ............ 00:01:00
  Routing Time Step ........ 5.00 sec
  Variable Time Step ....... YES
  Maximum Trials ........... 8
  Number of Threads ........ 4
  Head Tolerance ........... 0.001500 m
  
  
  **************************        Volume         Depth
  Runoff Quantity Continuity     hectare-m            mm
  **************************     ---------       -------
  Total Precipitation ......         1.170         2.561
  Evaporation Loss .........         0.000         0.000
  Infiltration Loss ........         0.280         0.612
  Surface Runoff ...........         0.224         0.490
  Final Storage ............         0.666         1.459
  Continuity Error (%) .....        -0.011
  
  
  **************************        Volume        Volume
  Flow Routing Continuity        hectare-m      10^6 ltr
  **************************     ---------     ---------
  Dry Weather Inflow .......         0.616         6.165
  Wet Weather Inflow .......         0.224         2.235
  Groundwater Inflow .......         0.000         0.000
  RDII Inflow ..............         0.000         0.000
  External Inflow ..........         0.102         1.024
  External Outflow .........         1.069        10.685
  Flooding Loss ............         0.000         0.000
  Evaporation Loss .........         0.000         0.000
  Exfiltration Loss ........         0.000         0.000
  Initial Stored Volume ....         0.076         0.761
  Final Stored Volume ......         0.123         1.232
  Continuity Error (%) .....       -17.019
  
  
  *************************
  Highest Continuity Errors
  *************************
  Node JK-storage (-66.01%)
  Node HS02004842 (55.43%)
  Node YS02001884 (45.97%)
  Node YS02001774 (28.68%)
  Node HS02004901 (20.65%)
  
  
  ***************************
  Time-Step Critical Elements
  ***************************
  Link WS02006252WS02006251 (82.98%)
  Link WS02006280WS02006229 (5.71%)
  Link 3 (3.13%)
  Link YS02001793JiankangQianchi (1.30%)
  Link WS02006238WS02006235 (1.06%)
  
  
  ********************************
  Highest Flow Instability Indexes
  ********************************
  Link WS02006113WS02006111 (61)
  Link WS02006111WS02006112 (15)
  Link YS02001754YS02001757 (3)
  Link YS02001649YS02001757 (2)
  Link YS02001652YS02001649 (2)
  
  
  *************************
  Routing Time Step Summary
  *************************
  Minimum Time Step           :     0.50 sec
  Average Time Step           :     1.41 sec
  Maximum Time Step           :     5.00 sec
  Percent in Steady State     :     0.00
  Average Iterations per Step :     2.01
  Percent Not Converging      :     0.02
  
  
  ***************************
  Subcatchment Runoff Summary
  ***************************
  
  ------------------------------------------------------------------------------------------------------------------------------
                            Total      Total      Total      Total     Imperv       Perv      Total       Total     Peak  Runoff
                           Precip      Runon       Evap      Infil     Runoff     Runoff     Runoff      Runoff   Runoff   Coeff
  Subcatchment                 mm         mm         mm         mm         mm         mm         mm    10^6 ltr      LPS
  ------------------------------------------------------------------------------------------------------------------------------
  sub0                       2.56       0.00       0.00       0.18       1.12       0.00       1.12        0.00     0.22   0.436
  sub1                       2.56       0.00       0.00       0.28       1.03       0.00       1.03        0.01     1.21   0.403
  sub2                       2.56       0.00       0.00       0.95       0.72       0.00       0.72        0.01     1.08   0.280
  sub3                       2.56       0.00       0.00       0.95       0.69       0.00       0.69        0.02     2.23   0.270
  sub4                       2.56       0.00       0.00       0.28       0.94       0.00       0.94        0.02     2.51   0.365
  sub5                       2.56       0.00       0.00       0.18       1.08       0.00       1.08        0.01     2.15   0.421
  sub7                       2.56       0.00       0.00       0.23       1.08       0.00       1.08        0.00     0.74   0.421
  sub8                       2.56       0.00       0.00       0.23       1.07       0.00       1.07        0.01     1.32   0.418
  sub9                       2.56       0.00       0.00       0.23       1.07       0.00       1.07        0.01     0.98   0.417
  sub10                      2.56       0.00       0.00       0.20       1.07       0.00       1.07        0.01     2.14   0.418
  sub11                      2.56       0.00       0.00       0.20       1.08       0.00       1.08        0.01     2.47   0.423
  sub12                      2.56       0.00       0.00       0.33       1.04       0.00       1.04        0.01     2.04   0.406
  sub14                      2.56       0.00       0.00       0.23       1.07       0.00       1.07        0.01     1.92   0.416
  sub15                      2.56       0.00       0.00       0.77       0.82       0.00       0.82        0.01     2.61   0.319
  sub16                      2.56       0.00       0.00       0.85       0.80       0.00       0.80        0.01     1.81   0.312
  sub17                      2.56       0.00       0.00       0.82       0.81       0.00       0.81        0.01     1.47   0.316
  sub22                      2.56       0.00       0.00       1.10       0.67       0.00       0.67        0.04     8.45   0.263
  sub23                      2.56       0.00       0.00       0.95       0.75       0.00       0.75        0.04     7.17   0.291
  sub60                      2.56       0.00       0.00       0.31       0.51       0.00       0.51        0.16    11.68   0.201
  sub61                      2.56       0.00       0.00       0.44       0.59       0.00       0.59        0.18    15.27   0.231
  sub62                      2.56       0.00       0.00       0.20       0.62       0.00       0.62        0.19    15.45   0.243
  sub63                      2.56       0.00       0.00       0.74       0.54       0.00       0.54        0.16    14.42   0.212
  sub64                      2.56       0.00       0.00       0.38       0.49       0.00       0.49        0.15    11.05   0.191
  sub65                      2.56       0.00       0.00       0.33       0.49       0.00       0.49        0.15    11.18   0.192
  sub66                      2.56       0.00       0.00       0.74       0.44       0.00       0.44        0.13    10.28   0.170
  sub67                      2.56       0.00       0.00       0.20       0.73       0.00       0.73        0.23    20.37   0.286
  sub68                      2.56       0.00       0.00       0.36       0.64       0.00       0.64        0.20    17.02   0.251
  sub69                      2.56       0.00       0.00       0.38       0.75       0.00       0.75        0.17    17.26   0.292
  sub70                      2.56       0.76       0.00       1.13       0.74       0.00       0.74        0.17    11.05   0.222
  sub71                      2.56       0.00       0.00       0.20       0.58       0.00       0.58        0.14    10.62   0.226
  sub72                      2.56       0.00       0.00       0.18       0.35       0.00       0.35        0.07     4.62   0.138
  sub73                      2.56       0.72       0.00       1.12       0.67       0.00       0.67        0.16     9.63   0.203
  sub74                      2.56       0.00       0.00       1.92       0.23       0.00       0.23        0.09     9.69   0.090
  
  
  ******************
  Node Depth Summary
  ******************
  
  ---------------------------------------------------------------------------------
                                 Average  Maximum  Maximum  Time of Max    Reported
                                   Depth    Depth      HGL   Occurrence   Max Depth
  Node                 Type       Meters   Meters   Meters  days hr:min      Meters
  ---------------------------------------------------------------------------------
  WS02001211           JUNCTION     0.65     0.76     5.60     0  06:50        0.76
  WS02001212           JUNCTION     0.37     0.46     5.52     0  06:50        0.46
  WS02001213           JUNCTION     0.58     0.68     5.44     0  06:50        0.68
  WS02003069           JUNCTION     0.37     0.46     5.04     0  04:33        0.45
  WS02003072           JUNCTION     0.44     0.52     4.89     0  04:34        0.52
  WS02003073           JUNCTION     0.26     0.31     4.38     0  04:35        0.31
  WS02003060           JUNCTION     0.33     0.41     5.34     0  04:32        0.41
  WS02003066           JUNCTION     0.17     0.22     5.77     0  04:25        0.22
  WS02003059           JUNCTION     0.64     0.73     5.41     0  04:32        0.73
  WS02003067           JUNCTION     0.44     0.55     5.87     0  04:25        0.55
  WS02004401           JUNCTION     0.51     0.62     6.62     0  03:36        0.62
  WS02004402           JUNCTION     0.54     0.66     6.62     0  03:37        0.66
  WS02004403           JUNCTION     0.57     0.68     6.61     0  03:37        0.68
  WS02004404           JUNCTION     0.64     0.76     6.61     0  03:37        0.76
  WS02004406           JUNCTION     0.66     0.77     6.60     0  03:37        0.77
  WS02004409           JUNCTION     0.32     0.44     6.21     0  04:23        0.44
  WS02004410           JUNCTION     0.35     0.46     6.18     0  04:24        0.46
  WS02004411           JUNCTION     0.37     0.48     6.16     0  04:24        0.48
  WS02004412           JUNCTION     0.39     0.50     6.14     0  04:24        0.50
  WS02004413           JUNCTION     0.55     0.67     6.14     0  04:24        0.67
  WS02004405           JUNCTION     0.64     0.76     6.61     0  03:37        0.76
  WS02006109           JUNCTION     0.57     0.70     7.32     0  03:32        0.70
  WS02006110           JUNCTION     0.58     0.71     7.29     0  03:32        0.71
  WS02006111           JUNCTION     0.15     0.20     6.91     0  03:33        0.20
  WS02006112           JUNCTION     0.65     0.78     6.66     0  03:35        0.78
  WS02006113           JUNCTION     0.22     0.31     7.20     0  03:32        0.31
  WS02006115           JUNCTION     0.39     0.50     6.64     0  03:36        0.50
  WS02006116           JUNCTION     0.47     0.59     6.63     0  03:36        0.59
  WS02006230           JUNCTION     0.47     0.63     7.37     0  03:31        0.63
  WS02006231           JUNCTION     0.31     0.43     7.56     0  03:30        0.43
  WS02006232           JUNCTION     0.43     0.57     7.61     0  03:30        0.57
  WS02006234           JUNCTION     0.33     0.47     7.63     0  03:30        0.47
  WS02006235           JUNCTION     0.35     0.50     7.67     0  03:30        0.50
  WS02006238           JUNCTION     0.38     0.53     7.67     0  03:30        0.53
  WS02006240           JUNCTION     0.26     0.40     7.70     0  03:29        0.40
  WS02006242           JUNCTION     0.31     0.45     7.72     0  03:29        0.45
  WS02006243           JUNCTION     0.19     0.32     7.74     0  03:28        0.32
  WS02006245           JUNCTION     0.20     0.32     7.81     0  03:27        0.32
  WS02006247           JUNCTION     0.23     0.35     7.85     0  03:27        0.35
  WS02006248           JUNCTION     0.18     0.30     7.89     0  03:26        0.30
  WS02006249           JUNCTION     0.23     0.35     7.95     0  03:26        0.35
  WS02006239           JUNCTION     0.32     0.47     7.68     0  03:29        0.47
  WS02006251           JUNCTION     0.21     0.34     8.01     0  03:48        0.34
  WS02006252           JUNCTION     0.20     0.33     8.57     0  03:48        0.31
  WS02006253           JUNCTION     0.23     0.37     8.01     0  03:49        0.37
  WS02006256           JUNCTION     0.70     1.19     8.12     0  00:30        1.19
  WS02004138           JUNCTION     0.15     0.19     7.44     0  02:10        0.19
  WS02004407           JUNCTION     0.15     0.20     6.51     0  03:37        0.20
  WS02006228           JUNCTION     0.54     0.69     7.34     0  03:32        0.69
  WS02006229           JUNCTION     0.50     0.65     7.35     0  03:32        0.65
  WS02006280           JUNCTION     0.04     0.07     8.34     0  02:41        0.07
  WS02006284           JUNCTION     0.32     0.37     8.77     0  02:41        0.37
  WS02006287           JUNCTION     0.05     0.10     9.05     0  02:41        0.10
  WSF200               JUNCTION     0.14     0.20     5.43     0  03:40        0.20
  HS02004901           JUNCTION     0.09     0.13     9.96     0  02:41        0.13
  HS02004881           JUNCTION     0.00     0.01     9.04     0  02:38        0.01
  HS02004876           JUNCTION     0.02     0.05     9.08     0  02:38        0.05
  HS02004870           JUNCTION     0.00     0.01     9.30     0  02:36        0.01
  HS02004862           JUNCTION     0.01     0.01     9.40     0  02:37        0.01
  HS02004856           JUNCTION     0.07     0.08     9.51     0  02:36        0.08
  HS02004852           JUNCTION     0.00     0.01     9.52     0  02:38        0.01
  HS02004848           JUNCTION     0.00     0.01     9.61     0  02:32        0.01
  HS02004842           JUNCTION     0.32     0.34     9.61     0  02:31        0.34
  HS02004837           JUNCTION     0.02     0.03     9.61     0  02:32        0.03
  HS02004830           JUNCTION     0.03     0.04     9.51     0  02:32        0.04
  HS02004824           JUNCTION     0.01     0.02     9.42     0  02:35        0.02
  HS02004817           JUNCTION     0.40     0.44     9.29     0  02:40        0.44
  HS02004807           JUNCTION     0.09     0.12     9.29     0  02:40        0.12
  HS02004802           JUNCTION     0.13     0.16     9.29     0  02:40        0.16
  HS02004799           JUNCTION     0.07     0.12     9.33     0  02:39        0.12
  HS02004792           JUNCTION     0.01     0.03     9.56     0  02:38        0.03
  HS02004788           JUNCTION     0.01     0.02     9.92     0  02:41        0.02
  HS02004785           JUNCTION     0.02     0.05     9.95     0  02:42        0.05
  HS02004777           JUNCTION     0.11     0.16     9.95     0  02:41        0.16
  HS02004770           JUNCTION     0.08     0.12     9.96     0  02:41        0.12
  HS02004480           JUNCTION     0.04     0.09     9.33     0  02:40        0.09
  HS02004479           JUNCTION     0.08     0.12     9.33     0  02:40        0.12
  HS02004478           JUNCTION     0.04     0.06     9.29     0  02:40        0.06
  YS02001745           JUNCTION     0.03     0.05     7.57     0  03:01        0.05
  YS02001748           JUNCTION     0.04     0.06     7.13     0  03:01        0.06
  YS02001751           JUNCTION     0.12     0.15     7.03     0  03:21        0.15
  YS02001754           JUNCTION     0.35     0.43     7.03     0  06:33        0.43
  YS02001762           JUNCTION     0.54     0.63     7.03     0  03:20        0.63
  YS02001765           JUNCTION     0.49     0.58     7.03     0  03:19        0.58
  YS02001767           JUNCTION     0.46     0.55     7.03     0  03:19        0.55
  YS02001770           JUNCTION     0.45     0.54     7.03     0  03:19        0.54
  YS02001774           JUNCTION     0.52     0.61     7.03     0  03:19        0.61
  YS02001779           JUNCTION     0.28     0.35     7.04     0  03:19        0.35
  YS02001882           JUNCTION     0.15     0.21     6.92     0  03:03        0.21
  YS02001884           JUNCTION     0.24     0.30     6.92     0  03:04        0.30
  YS02001759           JUNCTION     0.57     0.67     7.03     0  03:20        0.67
  YS02001887           JUNCTION     0.32     0.38     6.92     0  03:04        0.38
  YS02001890           JUNCTION     0.35     0.41     6.92     0  03:03        0.41
  YS02001898           JUNCTION     0.13     0.17     6.91     0  03:04        0.17
  YS02001901           JUNCTION     0.24     0.30     6.91     0  03:05        0.30
  YS02001904           JUNCTION     0.22     0.28     6.91     0  03:05        0.28
  YS02001907           JUNCTION     0.54     0.62     6.91     0  03:05        0.62
  YS02001910           JUNCTION     0.33     0.40     6.91     0  03:05        0.40
  YS02001915           JUNCTION     0.14     0.19     6.91     0  03:05        0.19
  YS02001918           JUNCTION     0.04     0.05     7.11     0  03:07        0.05
  YS02001619           JUNCTION     0.08     0.11     7.04     0  03:16        0.11
  YS02001629           JUNCTION     0.40     0.49     7.04     0  03:25        0.49
  YS02001641           JUNCTION     0.51     0.59     7.03     0  03:23        0.59
  YS02001644           JUNCTION     0.51     0.60     7.03     0  03:26        0.60
  YS02001652           JUNCTION     0.36     0.44     7.03     0  03:28        0.44
  YS02001655           JUNCTION     0.14     0.18     7.03     0  03:19        0.18
  YS02001920           JUNCTION     0.12     0.13     7.13     0  03:06        0.13
  YS02001923           JUNCTION     0.03     0.03     7.29     0  03:04        0.03
  YS02001926           JUNCTION     0.07     0.09     7.53     0  03:03        0.09
  YS02001929           JUNCTION     0.03     0.03     7.73     0  03:01        0.03
  YS02001658           JUNCTION     0.04     0.06     7.20     0  03:01        0.06
  YS02001661           JUNCTION     0.10     0.12     7.53     0  03:01        0.12
  YS02001664           JUNCTION     0.03     0.05     7.97     0  03:01        0.05
  YS02001622           JUNCTION     0.10     0.13     7.04     0  03:15        0.13
  YS02001633           JUNCTION     0.49     0.58     7.03     0  03:24        0.58
  YS02001649           JUNCTION     0.55     0.64     7.03     0  03:20        0.64
  YS02001757           JUNCTION     0.67     0.77     7.03     0  03:20        0.77
  YS02001895           JUNCTION     0.12     0.17     6.92     0  03:03        0.17
  YS02001625           JUNCTION     0.36     0.43     7.04     0  03:15        0.43
  YS02163301           JUNCTION     0.43     0.52     7.03     0  03:25        0.52
  YS02163601           JUNCTION     0.54     0.63     7.03     0  03:24        0.63
  YS02164001           JUNCTION     0.49     0.57     7.03     0  03:24        0.57
  YS02001647           JUNCTION     0.35     0.42     7.03     0  03:23        0.42
  YSB1154              JUNCTION     0.21     0.27     9.33     0  02:39        0.27
  YSB6556              JUNCTION     0.11     0.16     9.33     0  02:40        0.16
  YSB1174              JUNCTION     0.16     0.22     9.33     0  02:39        0.22
  YSB1171              JUNCTION     0.36     0.42     9.33     0  02:40        0.42
  YS02006553           JUNCTION     0.55     0.63     6.91     0  03:04        0.63
  YS02006561           JUNCTION     0.06     0.09     6.75     0  03:05        0.09
  YS02006556           JUNCTION     0.52     0.60     6.91     0  03:05        0.60
  YS02006558           JUNCTION     0.56     0.64     6.91     0  03:05        0.64
  YS02001783           JUNCTION     0.10     0.15     6.29     0  03:05        0.15
  YS02001784           JUNCTION     0.13     0.19     6.26     0  03:06        0.19
  YS02001786           JUNCTION     0.12     0.16     6.19     0  03:06        0.16
  YS02001788           JUNCTION     0.08     0.11     6.09     0  03:07        0.11
  YS02001790           JUNCTION     0.10     0.14     5.78     0  03:07        0.14
  YS02001791           JUNCTION     0.06     0.09     5.56     0  03:07        0.09
  YS02001793           JUNCTION     0.04     0.06     4.89     0  03:07        0.06
  WS02004139           JUNCTION     0.60     0.71     5.62     0  06:50        0.71
  WSC                  OUTFALL      0.26     0.31     0.98     0  04:35        0.31
  3                    OUTFALL      0.00     0.19     6.19     0  00:30        0.19
  4                    OUTFALL      0.00     0.00     7.00     0  00:00        0.00
  5                    OUTFALL      0.00     0.00     5.00     0  00:00        0.00
  JK-storage           STORAGE      0.09     3.02     3.82     0  00:20        3.02
  CC-storage           STORAGE      0.00     0.01     7.01     0  03:43        0.01
  XR-storage           STORAGE      0.81     5.00     3.00     0  00:00        4.96
  
  
  *******************
  Node Inflow Summary
  *******************
  
  -------------------------------------------------------------------------------------------------
                                  Maximum  Maximum                  Lateral       Total        Flow
                                  Lateral    Total  Time of Max      Inflow      Inflow     Balance
                                   Inflow   Inflow   Occurrence      Volume      Volume       Error
  Node                 Type           LPS      LPS  days hr:min    10^6 ltr    10^6 ltr     Percent
  -------------------------------------------------------------------------------------------------
  WS02001211           JUNCTION      7.35   387.69     0  06:46       0.207         7.1       0.407
  WS02001212           JUNCTION      0.00   387.71     0  06:46           0        7.08       0.260
  WS02001213           JUNCTION      0.00   387.72     0  06:45           0        7.06       0.238
  WS02003069           JUNCTION      0.32   614.00     0  04:33     0.00902        10.6       0.176
  WS02003072           JUNCTION      0.00   613.17     0  04:33           0        10.6       0.239
  WS02003073           JUNCTION      1.82   614.24     0  04:34      0.0514        10.6       0.253
  WS02003060           JUNCTION     16.53   613.96     0  04:32       0.466        10.6       0.174
  WS02003066           JUNCTION      0.00   245.06     0  04:25           0        3.14       0.084
  WS02003059           JUNCTION      0.00   387.75     0  06:45           0        7.04       0.415
  WS02003067           JUNCTION      0.00   245.07     0  04:25           0        3.15       0.200
  WS02004401           JUNCTION      0.00   257.34     0  03:34           0         3.3       0.450
  WS02004402           JUNCTION      0.00   254.17     0  03:35           0        3.29       0.442
  WS02004403           JUNCTION      0.00   252.44     0  03:36           0        3.28       0.417
  WS02004404           JUNCTION      0.16   251.67     0  03:36     0.00457        3.27       0.331
  WS02004406           JUNCTION      0.00   250.79     0  03:36           0        3.24       0.816
  WS02004409           JUNCTION      0.00   250.38     0  03:37           0        3.21       0.259
  WS02004410           JUNCTION      0.00   247.98     0  03:38           0         3.2       0.317
  WS02004411           JUNCTION      0.00   245.68     0  03:39           0        3.19       0.347
  WS02004412           JUNCTION      0.00   245.21     0  04:23           0        3.18       0.406
  WS02004413           JUNCTION      0.00   245.11     0  04:24           0        3.17       0.649
  WS02004405           JUNCTION      0.04   251.25     0  03:36     0.00107        3.26       0.498
  WS02006109           JUNCTION      1.23   271.19     0  03:31      0.0347        3.38       0.447
  WS02006110           JUNCTION      0.00   270.49     0  03:32           0        3.36       0.420
  WS02006111           JUNCTION      0.00   272.11     0  03:32           0        3.35       0.070
  WS02006112           JUNCTION      1.47   269.82     0  03:33     0.00693        3.35       0.662
  WS02006113           JUNCTION      0.00   269.88     0  03:32           0        3.35       0.139
  WS02006115           JUNCTION      0.00   266.44     0  03:33           0        3.33       0.358
  WS02006116           JUNCTION      0.00   261.55     0  03:33           0        3.32       0.345
  WS02006230           JUNCTION     10.28   249.55     0  03:31        0.29        2.99       0.184
  WS02006231           JUNCTION      0.00   239.57     0  03:30           0         2.7       0.203
  WS02006232           JUNCTION      0.00   240.25     0  03:30           0        2.71       0.352
  WS02006234           JUNCTION      0.00   241.57     0  03:29           0        2.71       0.063
  WS02006235           JUNCTION      0.00   242.57     0  03:29           0        2.75       0.210
  WS02006238           JUNCTION      0.00   139.68     0  03:29           0        1.48       0.191
  WS02006240           JUNCTION      0.00   146.84     0  03:28           0        1.45       0.172
  WS02006242           JUNCTION      0.00   151.52     0  03:27           0        1.44       0.250
  WS02006243           JUNCTION      0.00   154.49     0  03:27           0        1.43       0.135
  WS02006245           JUNCTION      0.00   156.02     0  03:26           0        1.43       0.223
  WS02006247           JUNCTION      0.00   157.17     0  03:26           0        1.43       0.118
  WS02006248           JUNCTION      0.00   158.10     0  03:26           0        1.43      -0.131
  WS02006249           JUNCTION      0.00   160.71     0  03:48           0        1.44       0.465
  WS02006239           JUNCTION      0.00   142.62     0  03:28           0        1.46       0.220
  WS02006251           JUNCTION      0.08   177.87     0  03:48     0.00217        1.46       0.145
  WS02006252           JUNCTION      0.00   178.16     0  03:48           0         1.4       0.008
  WS02006253           JUNCTION      0.22    20.38     0  03:51    0.000904      0.0615       1.787
  WS02006256           JUNCTION      0.00   599.92     0  00:30           0        1.41       0.132
  WS02004138           JUNCTION      0.00   380.00     0  02:10           0        6.92       0.066
  WS02004407           JUNCTION      0.00   250.48     0  03:37           0        3.21       0.124
  WS02006228           JUNCTION      0.00   271.10     0  03:31           0        3.35       0.291
  WS02006229           JUNCTION      0.00   272.01     0  03:31           0        3.36       0.237
  WS02006280           JUNCTION      0.00    41.12     0  02:41           0       0.382       0.020
  WS02006284           JUNCTION      0.10    41.12     0  02:41      0.0027       0.384       0.309
  WS02006287           JUNCTION      0.00    41.03     0  02:40           0       0.382       0.181
  WSF200               JUNCTION      0.00   245.06     0  04:25           0        3.14       0.070
  HS02004901           JUNCTION      1.81     1.81     0  02:25     0.00835     0.00849      26.018
  HS02004881           JUNCTION      0.74     6.05     0  02:37     0.00363      0.0377       0.167
  HS02004876           JUNCTION      1.21     5.42     0  02:35     0.00685      0.0345       1.459
  HS02004870           JUNCTION      1.32     4.24     0  02:34     0.00683      0.0278       0.368
  HS02004862           JUNCTION      1.28     2.99     0  02:35      0.0123      0.0211       0.762
  HS02004856           JUNCTION      0.98     1.73     0  02:34     0.00514      0.0102      16.255
  HS02004852           JUNCTION      0.00     0.80     0  02:36           0     0.00515       0.783
  HS02004848           JUNCTION      2.23     2.23     0  02:34      0.0156      0.0156       0.234
  HS02004842           JUNCTION      0.00     4.48     0  00:03           0      0.0235     124.345
  HS02004837           JUNCTION      8.49     9.91     0  02:30       0.191       0.201       0.405
  HS02004830           JUNCTION      0.15    10.06     0  02:32     0.00423       0.192       0.645
  HS02004824           JUNCTION      2.56    12.61     0  02:35      0.0209       0.211       0.254
  HS02004817           JUNCTION      0.60    13.21     0  02:35      0.0169       0.228       7.886
  HS02004807           JUNCTION      2.47    15.48     0  02:35      0.0126       0.224       1.922
  HS02004802           JUNCTION      0.00    15.42     0  02:38           0       0.219       1.877
  HS02004799           JUNCTION      1.92    21.92     0  02:37      0.0101       0.159       1.405
  HS02004792           JUNCTION      8.73    20.11     0  02:37      0.0504        0.15       0.281
  HS02004788           JUNCTION      4.28    12.11     0  02:40      0.0612         0.1       0.387
  HS02004785           JUNCTION      0.15     8.09     0  02:38     0.00423      0.0415       1.135
  HS02004777           JUNCTION      0.03     8.17     0  02:35    0.000846      0.0416      14.148
  HS02004770           JUNCTION      7.17     8.63     0  02:29      0.0355      0.0423       7.904
  HS02004480           JUNCTION      0.00    25.64     0  02:39           0       0.178       0.322
  HS02004479           JUNCTION      0.00     3.78     0  02:40           0      0.0312       2.382
  HS02004478           JUNCTION      0.00    41.03     0  02:40           0       0.382       0.195
  YS02001745           JUNCTION     11.68    11.68     0  03:01       0.156       0.156       0.113
  YS02001748           JUNCTION      0.04    11.72     0  03:01     0.00127       0.157       0.060
  YS02001751           JUNCTION      0.01    20.90     0  06:36     0.00031        0.18       1.101
  YS02001754           JUNCTION      0.26    64.96     0  06:35     0.00733       0.298       2.965
  YS02001762           JUNCTION      0.00    26.27     0  07:33           0       0.204       6.829
  YS02001765           JUNCTION      0.00    32.88     0  06:32           0       0.196       7.505
  YS02001767           JUNCTION      0.54    27.23     0  06:28      0.0151       0.199      10.217
  YS02001770           JUNCTION     15.60    18.78     0  03:19       0.195       0.211       7.942
  YS02001774           JUNCTION      0.00    12.20     0  07:13           0      0.0491      40.217
  YS02001779           JUNCTION      0.01    10.62     0  07:18    0.000141      0.0208      30.347
  YS02001882           JUNCTION      0.00     1.14     0  02:08           0      0.0018     145.673
  YS02001884           JUNCTION      0.00     3.49     0  02:11           0     0.00767      85.094
  YS02001759           JUNCTION     15.31    41.15     0  06:32       0.184       0.361       4.462
  YS02001887           JUNCTION     20.82    20.82     0  03:01       0.238       0.241       2.420
  YS02001890           JUNCTION      0.00    20.58     0  03:00           0       0.228       2.854
  YS02001898           JUNCTION      0.00    20.39     0  03:04           0        0.22       0.592
  YS02001901           JUNCTION      0.00    20.45     0  03:03           0        0.22       1.910
  YS02001904           JUNCTION      0.00    20.37     0  03:05           0        0.22       1.790
  YS02001907           JUNCTION      0.00    38.31     0  03:05           0       0.497       4.145
  YS02001910           JUNCTION      0.00    18.11     0  03:01           0       0.287       3.017
  YS02001915           JUNCTION     10.64    18.09     0  03:01       0.137        0.29       1.009
  YS02001918           JUNCTION      0.00     7.55     0  03:06           0       0.153       0.339
  YS02001619           JUNCTION     10.28    10.28     0  03:01       0.134       0.134       0.335
  YS02001629           JUNCTION      0.00    14.69     0  03:18           0       0.125       4.598
  YS02001641           JUNCTION      0.00    34.09     0  03:17           0       0.245       5.222
  YS02001644           JUNCTION     11.09    43.51     0  03:17        0.15       0.375       4.111
  YS02001652           JUNCTION      0.00    23.28     0  07:16           0        0.18       4.918
  YS02001655           JUNCTION      0.15    14.57     0  03:01     0.00434        0.17       1.595
  YS02001920           JUNCTION      2.87     7.55     0  03:04      0.0809       0.154       0.854
  YS02001923           JUNCTION      0.04     4.68     0  03:03     0.00106      0.0735       0.165
  YS02001926           JUNCTION      0.05     4.67     0  03:01     0.00147      0.0734       1.275
  YS02001929           JUNCTION      4.62     4.62     0  03:01       0.072       0.072       0.147
  YS02001658           JUNCTION      0.00    14.42     0  03:01           0       0.164       0.081
  YS02001661           JUNCTION      0.00    14.42     0  03:01           0       0.164       0.354
  YS02001664           JUNCTION     14.42    14.42     0  03:01       0.164       0.164       0.058
  YS02001622           JUNCTION      0.00    10.74     0  03:16           0       0.134       1.645
  YS02001633           JUNCTION     11.38    29.36     0  03:17       0.157        0.27       6.977
  YS02001649           JUNCTION      0.00    56.76     0  03:18           0       0.508       4.682
  YS02001757           JUNCTION      0.00   120.89     0  06:37           0        1.03       7.003
  YS02001895           JUNCTION      0.00    20.44     0  03:01           0       0.222       0.979
  YS02001625           JUNCTION      0.00    12.58     0  03:16           0       0.134      11.021
  YS02163301           JUNCTION      0.00    17.40     0  03:17           0       0.128      10.040
  YS02163601           JUNCTION      0.11    31.44     0  03:18      0.0031       0.251       7.917
  YS02164001           JUNCTION      0.00    33.86     0  03:17           0       0.242       4.835
  YS02001647           JUNCTION      0.00    41.97     0  03:17           0        0.35       3.356
  YSB1154              JUNCTION      2.15     2.15     0  02:28      0.0122      0.0137      11.769
  YSB6556              JUNCTION      0.00     2.18     0  01:37           0      0.0148       9.125
  YSB1174              JUNCTION      2.04     2.04     0  02:25     0.00908      0.0102      14.431
  YSB1171              JUNCTION      0.00     3.85     0  02:34           0      0.0306      25.968
  YS02006553           JUNCTION      0.00    38.38     0  03:07           0       0.484       2.739
  YS02006561           JUNCTION      0.00    55.68     0  03:05           0       0.665       0.049
  YS02006556           JUNCTION      0.00    38.43     0  03:07           0       0.485       1.930
  YS02006558           JUNCTION     17.90    55.69     0  03:04       0.222       0.687       0.572
  YS02001783           JUNCTION      0.00    55.67     0  03:05           0       0.665       0.114
  YS02001784           JUNCTION      1.06    56.72     0  03:05      0.0299       0.694       0.194
  YS02001786           JUNCTION      0.06    56.76     0  03:06     0.00159       0.694       0.200
  YS02001788           JUNCTION      0.07    56.83     0  03:06       0.002       0.695       0.103
  YS02001790           JUNCTION      0.15    56.98     0  03:07     0.00437       0.698       0.135
  YS02001791           JUNCTION      0.00    56.98     0  03:07           0       0.697       0.063
  YS02001793           JUNCTION      0.00    56.98     0  03:07           0       0.697       0.032
  WS02004139           JUNCTION      0.32   380.33     0  02:10     0.00905        6.93       0.471
  WSC                  OUTFALL       0.00   613.04     0  04:35           0        10.6       0.000
  3                    OUTFALL       0.00   446.05     0  00:30           0         0.1       0.000
  4                    OUTFALL       0.00     0.00     0  00:00           0           0       0.000 ltr
  5                    OUTFALL       0.00     0.00     0  00:00           0           0       0.000 ltr
  JK-storage           STORAGE       0.00    56.98     0  03:07           0       0.847     -39.762
  CC-storage           STORAGE       0.00    82.49     0  03:21           0       0.844     -39.707
  XR-storage           STORAGE     219.17   219.17     0  03:01        5.89        6.49      -8.505
  
  
  **********************
  Node Surcharge Summary
  **********************
  
  No nodes were surcharged.
  
  
  *********************
  Node Flooding Summary
  *********************
  
  No nodes were flooded.
  
  
  **********************
  Storage Volume Summary
  **********************
  
  --------------------------------------------------------------------------------------------------
                         Average     Avg  Evap Exfil       Maximum     Max    Time of Max    Maximum
                          Volume    Pcnt  Pcnt  Pcnt        Volume    Pcnt     Occurrence    Outflow
  Storage Unit           1000 m3    Full  Loss  Loss       1000 m3    Full    days hr:min        LPS
  --------------------------------------------------------------------------------------------------
  JK-storage               0.004       2     0     0         0.151      52       0  00:20     599.92
  CC-storage               0.000       0     0     0         0.017       0       0  03:43     178.16
  XR-storage               0.097      10     0     0         0.600      65       0  00:00     380.00
  
  
  ***********************
  Outfall Loading Summary
  ***********************
  
  -----------------------------------------------------------
                         Flow       Avg       Max       Total
                         Freq      Flow      Flow      Volume
  Outfall Node           Pcnt       LPS       LPS    10^6 ltr
  -----------------------------------------------------------
  WSC                  100.00    421.44    613.04      10.585
  3                      4.50    177.42    446.05       0.100
  4                      0.00      0.00      0.00       0.000
  5                      0.00      0.00      0.00       0.000
  -----------------------------------------------------------
  System                26.12    598.86    788.22      10.685
  
  
  ********************
  Link Flow Summary
  ********************
  
  -----------------------------------------------------------------------------
                                 Maximum  Time of Max   Maximum    Max/    Max/
                                  |Flow|   Occurrence   |Veloc|    Full    Full
  Link                 Type          LPS  days hr:min     m/sec    Flow   Depth
  -----------------------------------------------------------------------------
  WS02003066WSF200     CONDUIT    245.06     0  04:25      2.33    0.04    0.15
  WS02006287WS02006284 CONDUIT     41.03     0  02:41      0.89    0.02    0.11
  WS02006284WS02006280 CONDUIT     41.12     0  02:41      1.15    0.02    0.09
  WS02006280WS02006229 CONDUIT     41.12     0  02:41      1.84    0.01    0.07
  WS02006229WS02006228 CONDUIT    271.10     0  03:31      0.62    0.90    0.82
  WS02006256WS02006235 CONDUIT    158.11     0  00:23      2.30    1.67    1.00
  WS02006253WS02006251 CONDUIT     47.85     0  03:49      0.31    0.14    0.50
  WS02006252WS02006251 CONDUIT    177.79     0  03:48      2.32    0.65    0.71
  WS02006251WS02006249 CONDUIT    160.71     0  03:48      0.87    0.46    0.49
  WS02006249WS02006248 CONDUIT    158.10     0  03:26      0.96    0.87    0.45
  WS02006248WS02006247 CONDUIT    157.17     0  03:26      0.93    0.34    0.46
  WS02006247WS02006245 CONDUIT    156.02     0  03:26      0.89    1.24    0.47
  WS02006245WS02006243 CONDUIT    154.49     0  03:27      0.97    0.46    0.45
  WS02006243WS02006242 CONDUIT    151.52     0  03:27      0.78    0.32    0.53
  WS02006242WS02006240 CONDUIT    146.84     0  03:28      0.66    0.58    0.60
  WS02006240WS02006239 CONDUIT    142.62     0  03:28      0.72    0.45    0.60
  WS02006239WS02006238 CONDUIT    139.68     0  03:29      0.58    0.45    0.70
  WS02006238WS02006235 CONDUIT    138.36     0  03:29      0.91    0.31    0.74
  WS02006235WS02006234 CONDUIT    241.57     0  03:29      0.92    2.55    0.68
  WS02006234WS02006232 CONDUIT    240.25     0  03:30      1.02    0.49    0.75
  WS02006232WS02006231 CONDUIT    239.57     0  03:30      0.82    0.50    0.71
  WS02006231WS02006230 CONDUIT    239.27     0  03:31      1.17    3.63    0.52
  WS02006230WS02006229 CONDUIT    248.84     0  03:31      0.71    5.54    0.88
  WS02006228WS02006109 CONDUIT    269.96     0  03:31      0.59    1.18    0.85
  WS02006116WS02004401 CONDUIT    257.34     0  03:34      0.77    0.35    0.61
  WS02006115WS02006116 CONDUIT    261.55     0  03:33      0.81    0.34    0.52
  WS02006113WS02006111 CONDUIT    272.11     0  03:32      1.95    0.33    0.32
  WS02006112WS02006115 CONDUIT    266.44     0  03:33      0.52    0.16    0.64
  WS02006111WS02006112 CONDUIT    269.53     0  03:33      1.29    0.13    0.59
  WS02006110WS02006113 CONDUIT    269.88     0  03:32      0.80    0.25    0.64
  WS02006109WS02006110 CONDUIT    270.49     0  03:32      0.62    0.52    0.81
  WS02004411WS02004412 CONDUIT    245.21     0  04:23      0.64    0.35    0.49
  WS02004401WS02004402 CONDUIT    254.17     0  03:35      0.80    0.31    0.64
  WS02004413WS02003067 CONDUIT    245.07     0  04:25      0.73    0.10    0.45
  WS02004412WS02004413 CONDUIT    245.11     0  04:24      0.51    0.16    0.59
  WS02004410WS02004411 CONDUIT    245.68     0  03:39      0.69    0.34    0.47
  WS02004409WS02004410 CONDUIT    247.98     0  03:38      0.75    0.32    0.45
  WS02004407WS02004409 CONDUIT    250.38     0  03:37      1.19    0.09    0.32
  WS02004406WS02004407 CONDUIT    250.48     0  03:37      0.66    0.11    0.49
  WS02004405WS02004406 CONDUIT    250.79     0  03:36      0.62    0.49    0.77
  WS02004404WS02004405 CONDUIT    251.22     0  03:36      0.88    2.46    0.76
  WS02004403WS02004404 CONDUIT    251.50     0  03:36      0.75    0.18    0.72
  WS02004402WS02004403 CONDUIT    252.44     0  03:36      0.79    0.36    0.67
  WS02004139WS02001211 CONDUIT    380.34     0  06:46      0.81    0.48    0.57
  WS02004138WS02004139 CONDUIT    380.01     0  02:10      3.34    0.08    0.43
  WS02003067WS02003066 CONDUIT    245.06     0  04:25      0.78    0.08    0.32
  WS02001213WS02003059 CONDUIT    387.75     0  06:45      0.78    0.64    0.69
  WS02001212WS02001213 CONDUIT    387.72     0  06:45      1.32    0.60    0.41
  WS02001211WS02001212 CONDUIT    387.71     0  06:46      0.78    0.30    0.61
  WS02003072WS02003073 CONDUIT    612.42     0  04:34      1.49    1.32    0.39
  WS02003069WS02003072 CONDUIT    613.17     0  04:33      1.42    0.30    0.41
  WS02003060WS02003069 CONDUIT    613.68     0  04:33      1.68    0.24    0.36
  WS02003059WS02003060 CONDUIT    387.79     0  06:44      0.93    0.25    0.57
  HS02004901HS02004770 CONDUIT      1.59     0  02:34      0.02    0.01    0.18
  HS02004876HS02004881 CONDUIT      5.38     0  02:38      0.20    0.06    0.04
  HS02004870HS02004876 CONDUIT      4.24     0  02:36      0.14    0.00    0.04
  HS02004842HS02004848 CONDUIT      1.45     0  02:39      0.01    0.00    0.25
  HS02004837HS02004842 CONDUIT      4.48     0  00:03      0.42    0.00    0.26
  HS02004830HS02004837 CONDUIT      9.91     0  02:32      0.30    0.01    0.05
  HS02004824HS02004830 CONDUIT     10.06     0  02:33      0.35    0.01    0.04
  HS02004817HS02004824 CONDUIT     12.61     0  02:35      0.17    0.01    0.33
  HS02004770HS02004777 CONDUIT      8.14     0  02:35      0.06    0.01    0.20
  HS02004799HS02004480 CONDUIT     21.88     0  02:38      0.22    0.03    0.14
  HS02004792HS02004799 CONDUIT     20.10     0  02:38      0.26    0.01    0.11
  HS02004788HS02004792 CONDUIT     12.10     0  02:41      0.44    0.01    0.04
  HS02004785HS02004788 CONDUIT      8.04     0  02:42      0.21    0.06    0.05
  HS02004777HS02004785 CONDUIT      7.94     0  02:38      0.08    0.01    0.15
  HS02004480HS02004478 CONDUIT     25.62     0  02:40      0.44    0.11    0.08
  HS02004479HS02004480 CONDUIT      3.80     0  02:43      0.16    0.00    0.15
  HS02004862HS02004870 CONDUIT      2.98     0  02:37      0.22    0.00    0.02
  HS02004848HS02004852 CONDUIT      0.80     0  02:36      0.12    0.00    0.01
  HS02004856HS02004862 CONDUIT      1.72     0  02:36      0.14    0.00    0.02
  HS02004852HS02004856 CONDUIT      0.79     0  02:38      0.02    0.00    0.06
  HS02004802HS02004478 CONDUIT     15.41     0  02:40      0.14    0.01    0.16
  HS02004478WS02006287 CONDUIT     41.03     0  02:40      0.62    0.01    0.07
  HS02004817HS02004807 CONDUIT     13.17     0  02:40      0.05    0.01    0.40
  HS02004807HS02004802 CONDUIT     15.42     0  02:38      0.19    0.03    0.19
  YS02001759YS02001757 CONDUIT     36.82     0  03:22      0.12    0.03    0.72
  YS02001762YS02001759 CONDUIT     36.05     0  07:33      0.17    0.04    0.65
  YS02001765YS02001762 CONDUIT     26.27     0  07:33      0.21    0.02    0.61
  YS02001770YS02001767 CONDUIT     22.15     0  06:31      0.24    0.09    0.54
  YS02001774YS02001770 CONDUIT     11.77     0  07:13      0.13    0.01    0.56
  YS02001779YS02001774 CONDUIT     10.61     0  07:18      0.03    0.01    0.48
  YS02001649YS02001757 CONDUIT     54.33     0  03:17      0.09    0.03    0.71
  YS02001767YS02001765 CONDUIT     32.88     0  06:32      0.26    0.04    0.56
  YS02006561YS02001783 CONDUIT     55.67     0  03:05      1.14    0.03    0.15
  YS02001783YS02001784 CONDUIT     55.66     0  03:05      0.71    0.08    0.21
  YS02001784YS02001785 CONDUIT     56.71     0  03:06      0.70    0.13    0.22
  YS02001788YS02001790 CONDUIT     56.83     0  03:07      1.15    0.04    0.15
  YS02001790YS02001791 CONDUIT     56.98     0  03:07      1.31    0.06    0.14
  YS02001791YS02001793 CONDUIT     56.98     0  03:07      2.33    0.02    0.10
  YS02001910YS02001907 CONDUIT     18.03     0  03:07      0.49    0.01    0.51
  YS02001786YS02001788 CONDUIT     56.76     0  03:06      1.00    0.11    0.17
  YS02001915YS02001910 CONDUIT     18.11     0  03:01      0.44    0.01    0.30
  YS02001918YS02001915 CONDUIT      7.54     0  03:07      0.44    0.00    0.12
  YS02001923YS02001920 CONDUIT      4.68     0  03:04      0.16    0.00    0.08
  YS02001926YS02001923 CONDUIT      4.65     0  03:03      0.24    0.01    0.06
  YS02001929YS02001926 CONDUIT      4.62     0  03:01      0.23    0.00    0.06
  YS02001920YS02001918 CONDUIT      7.55     0  03:06      0.23    0.01    0.09
  YS02001629YS02163301 CONDUIT     17.40     0  03:17      0.06    0.02    0.50
  YS02001619YS02001622 CONDUIT     10.74     0  03:16      0.39    0.02    0.12
  YS02001622YS02001625 CONDUIT     12.58     0  03:16      0.15    0.01    0.28
  YS02001625YS02001629 CONDUIT     14.69     0  03:18      0.09    0.01    0.27
  YS02163301YS02001633 CONDUIT     20.39     0  07:22      0.05    0.02    0.55
  YS02163601YS02164001 CONDUIT     33.86     0  03:17      0.07    0.03    0.60
  YS02164001YS02001641 CONDUIT     34.09     0  03:17      0.07    0.05    0.58
  YS02001641YS02001644 CONDUIT     33.18     0  03:17      0.08    0.11    0.60
  YS02001647YS02001649 CONDUIT     41.48     0  03:16      0.11    0.02    0.53
  YS02006553YS02006556 CONDUIT     38.43     0  03:07      0.18    0.03    0.59
  YS02006556YS02006558 CONDUIT     38.43     0  03:07      0.08    0.03    0.62
  YSB6556YSB1171       CONDUIT      2.18     0  01:37      0.03    0.00    0.41
  YS02001907YS02006553 CONDUIT     38.38     0  03:07      0.06    0.05    0.68
  YS02006558YS02006561 CONDUIT     55.68     0  03:05      1.42    0.12    0.20
  YS02001633YS02163601 CONDUIT     31.33     0  03:18      0.06    0.03    0.60
  YS02001644YS02001647 CONDUIT     41.97     0  03:17      0.11    0.02    0.51
  YS02001745YS02001748 CONDUIT     11.67     0  03:01      0.83    0.00    0.05
  YS02001748YS02001751 CONDUIT     11.76     0  03:01      0.70    0.01    0.10
  YS02001751YS02001754 CONDUIT     28.23     0  06:28      0.67    0.01    0.26
  YS02001754YS02001757 CONDUIT     55.00     0  06:37      0.33    0.02    0.60
  YS02001882YS02001884 CONDUIT      1.14     0  02:08      0.06    0.00    0.22
  YS02001884YS02001887 CONDUIT      3.49     0  02:11      0.04    0.00    0.32
  YS02001890YS02001895 CONDUIT     20.44     0  03:01      0.11    0.01    0.29
  YS02001895YS02001898 CONDUIT     20.39     0  03:04      0.31    0.04    0.16
  YS02001898YS02001901 CONDUIT     20.45     0  03:03      0.14    0.01    0.24
  YS02001901YS02001904 CONDUIT     20.37     0  03:05      0.18    0.03    0.29
  YS02001904YS02001907 CONDUIT     20.39     0  03:05      0.06    0.01    0.45
  YS02001887YS02001890 CONDUIT     20.58     0  03:00      0.10    0.04    0.37
  YS02001652YS02001649 CONDUIT     21.59     0  06:35      0.22    0.01    0.54
  YS02001655YS02001652 CONDUIT     16.08     0  03:11      0.71    0.01    0.29
  YS02001658YS02001655 CONDUIT     14.42     0  03:01      0.79    0.01    0.12
  YS02001661YS02001658 CONDUIT     14.42     0  03:01      0.85    0.01    0.05
  YS02001664YS02001661 CONDUIT     14.42     0  03:01      0.44    0.00    0.09
  YSB1154YSB6556       CONDUIT      2.12     0  02:31      0.19    0.00    0.30
  YSB1174YSB1171       CONDUIT      2.01     0  02:22      0.02    0.00    0.42
  YSB1171HS02004479    CONDUIT      3.78     0  02:40      0.54    0.00    0.31
  HS02004881HS02006253 CONDUIT      6.05     0  02:38      0.80    0.00    0.02
  YS02001793JiankangQianchi CONDUIT     56.98     0  03:07      7.91    0.00    0.50
  YS02001757CaochengTiaoxuchi CONDUIT     82.49     0  03:21      0.30    0.04    0.39
  WSF200WS02003060     CONDUIT    245.06     0  04:25      1.38    0.05    0.25
  1                    CONDUIT    613.04     0  04:35      2.91    0.21    0.31
  2                    CONDUIT      0.00     0  00:00      0.00    0.00    0.00
  3                    CONDUIT    446.05     0  00:30      9.55    0.71    0.63
  4                    CONDUIT      0.00     0  00:00      0.00    0.00    0.00
  CC-Pump-1            PUMP        81.62     0  03:30              0.41
  CC-Pump-2            PUMP       178.16     0  03:48              0.89
  JK-Pump-1            PUMP       299.92     0  00:30              1.00
  JK-Pump-2            PUMP       300.00     0  00:30              1.00
  XR-Pump-1            PUMP        95.00     0  00:00              1.00
  XR-Pump-2            PUMP        95.00     0  00:00              1.00
  XR-Pump-3            PUMP        95.00     0  00:00              1.00
  XR-Pump-4            PUMP        95.00     0  00:20              1.00
  
  
  ***************************
  Flow Classification Summary
  ***************************
  
  -------------------------------------------------------------------------------------
                      Adjusted    ---------- Fraction of Time in Flow Class ---------- 
                       /Actual         Up    Down  Sub   Sup   Up    Down  Norm  Inlet 
  Conduit               Length    Dry  Dry   Dry   Crit  Crit  Crit  Crit  Ltd   Ctrl  
  -------------------------------------------------------------------------------------
  WS02003066WSF200        1.00   0.04  0.06  0.00  0.00  0.90  0.00  0.00  0.75  0.00
  WS02006287WS02006284    1.00   0.06  0.02  0.00  0.87  0.05  0.00  0.00  0.81  0.00
  WS02006284WS02006280    1.00   0.07  0.00  0.00  0.00  0.00  0.00  0.93  0.00  0.00
  WS02006280WS02006229    1.00   0.07  0.00  0.00  0.00  0.00  0.00  0.93  0.00  0.00
  WS02006229WS02006228    1.00   0.00  0.00  0.00  1.00  0.00  0.00  0.00  0.00  0.00
  WS02006256WS02006235    1.00   0.01  0.00  0.00  0.99  0.00  0.00  0.00  0.00  0.00
  WS02006253WS02006251    1.00   0.02  0.04  0.00  0.93  0.00  0.00  0.00  0.00  0.00
  WS02006252WS02006251    1.00   0.16  0.00  0.00  0.00  0.00  0.83  0.00  0.00  0.00
  WS02006251WS02006249    1.00   0.00  0.00  0.00  1.00  0.00  0.00  0.00  0.41  0.00
  WS02006249WS02006248    1.00   0.00  0.01  0.00  0.77  0.00  0.23  0.00  0.00  0.00
  WS02006248WS02006247    1.00   0.01  0.00  0.00  0.95  0.00  0.00  0.04  0.33  0.00
  WS02006247WS02006245    1.00   0.01  0.00  0.00  0.96  0.00  0.00  0.04  0.00  0.00
  WS02006245WS02006243    1.00   0.01  0.00  0.00  0.90  0.00  0.00  0.09  0.04  0.00
  WS02006243WS02006242    1.00   0.01  0.00  0.00  0.98  0.00  0.00  0.01  0.43  0.00
  WS02006242WS02006240    1.00   0.01  0.00  0.00  0.99  0.00  0.00  0.00  0.00  0.00
  WS02006240WS02006239    1.00   0.01  0.00  0.00  0.92  0.00  0.00  0.07  0.01  0.00
  WS02006239WS02006238    1.00   0.01  0.00  0.00  0.99  0.00  0.00  0.00  0.00  0.00
  WS02006238WS02006235    1.00   0.01  0.00  0.00  0.99  0.00  0.00  0.00  0.00  0.00
  WS02006235WS02006234    1.00   0.01  0.00  0.00  0.92  0.00  0.07  0.00  0.00  0.00
  WS02006234WS02006232    1.00   0.01  0.00  0.00  0.99  0.00  0.00  0.00  0.01  0.00
  WS02006232WS02006231    1.00   0.01  0.00  0.00  0.98  0.00  0.01  0.00  0.00  0.00
  WS02006231WS02006230    1.00   0.01  0.00  0.00  0.00  0.00  0.99  0.00  0.00  0.00
  WS02006230WS02006229    1.00   0.00  0.00  0.00  0.99  0.00  0.00  0.01  0.00  0.00
  WS02006228WS02006109    1.00   0.00  0.00  0.00  1.00  0.00  0.00  0.00  0.00  0.00
  WS02006116WS02004401    1.00   0.05  0.00  0.00  0.95  0.00  0.00  0.00  0.00  0.00
  WS02006115WS02006116    1.00   0.05  0.00  0.00  0.95  0.00  0.00  0.01  0.00  0.00
  WS02006113WS02006111    1.00   0.03  0.00  0.00  0.00  0.97  0.00  0.00  0.16  0.00
  WS02006112WS02006115    1.00   0.04  0.01  0.00  0.95  0.00  0.00  0.00  0.00  0.00
  WS02006111WS02006112    1.00   0.04  0.00  0.00  0.95  0.00  0.00  0.01  0.94  0.00
  WS02006110WS02006113    1.00   0.00  0.03  0.00  0.97  0.00  0.00  0.00  0.00  0.00
  WS02006109WS02006110    1.00   0.00  0.00  0.00  0.99  0.00  0.00  0.00  0.00  0.00
  WS02004411WS02004412    1.00   0.07  0.00  0.00  0.93  0.00  0.00  0.00  0.00  0.00
  WS02004401WS02004402    1.00   0.05  0.00  0.00  0.95  0.00  0.00  0.00  0.00  0.00
  WS02004413WS02003067    1.00   0.07  0.02  0.00  0.00  0.00  0.91  0.00  0.00  0.00
  WS02004412WS02004413    1.00   0.07  0.00  0.00  0.93  0.00  0.00  0.00  0.03  0.00
  WS02004410WS02004411    1.00   0.07  0.00  0.00  0.93  0.00  0.00  0.00  0.03  0.00
  WS02004409WS02004410    1.00   0.07  0.00  0.00  0.93  0.00  0.00  0.00  0.03  0.00
  WS02004407WS02004409    1.00   0.07  0.00  0.00  0.93  0.00  0.00  0.00  0.86  0.00
  WS02004406WS02004407    1.00   0.00  0.07  0.00  0.93  0.00  0.00  0.00  0.00  0.00
  WS02004405WS02004406    1.00   0.00  0.00  0.00  1.00  0.00  0.00  0.00  0.04  0.00
  WS02004404WS02004405    1.00   0.00  0.00  0.00  1.00  0.00  0.00  0.00  0.00  0.00
  WS02004403WS02004404    1.00   0.00  0.05  0.00  0.95  0.00  0.00  0.00  0.01  0.00
  WS02004402WS02004403    1.00   0.05  0.00  0.00  0.95  0.00  0.00  0.00  0.00  0.00
  WS02004139WS02001211    1.00   0.00  0.00  0.00  1.00  0.00  0.00  0.00  0.00  0.00
  WS02004138WS02004139    1.00   0.00  0.00  0.00  1.00  0.00  0.00  0.00  1.00  0.00
  WS02003067WS02003066    1.00   0.09  0.01  0.00  0.90  0.00  0.00  0.00  0.00  0.00
  WS02001213WS02003059    1.00   0.00  0.00  0.00  1.00  0.00  0.00  0.00  0.00  0.00
  WS02001212WS02001213    1.00   0.00  0.00  0.00  0.29  0.00  0.71  0.00  0.00  0.00
  WS02001211WS02001212    1.00   0.00  0.00  0.00  1.00  0.00  0.00  0.00  0.00  0.00
  WS02003072WS02003073    1.00   0.00  0.00  0.00  0.00  0.00  0.00  1.00  0.00  0.00
  WS02003069WS02003072    1.00   0.00  0.00  0.00  1.00  0.00  0.00  0.00  0.43  0.00
  WS02003060WS02003069    1.00   0.00  0.00  0.00  0.99  0.01  0.00  0.00  0.25  0.00
  WS02003059WS02003060    1.00   0.00  0.00  0.00  1.00  0.00  0.00  0.00  0.01  0.00
  HS02004901HS02004770    1.00   0.07  0.00  0.00  0.93  0.00  0.00  0.00  0.04  0.00
  HS02004876HS02004881    1.00   0.01  0.00  0.00  0.99  0.00  0.00  0.00  0.00  0.00
  HS02004870HS02004876    1.00   0.00  0.00  0.00  1.00  0.00  0.00  0.00  0.95  0.00
  HS02004842HS02004848    1.00   0.00  0.07  0.00  0.93  0.00  0.00  0.00  0.79  0.00
  HS02004837HS02004842    1.00   0.00  0.00  0.00  1.00  0.00  0.00  0.00  0.11  0.00
  HS02004830HS02004837    1.00   0.00  0.00  0.00  1.00  0.00  0.00  0.00  0.99  0.00
  HS02004824HS02004830    1.00   0.00  0.00  0.00  1.00  0.00  0.00  0.00  0.00  0.00
  HS02004817HS02004824    1.00   0.00  0.00  0.00  1.00  0.00  0.00  0.00  1.00  0.00
  HS02004770HS02004777    1.00   0.00  0.07  0.00  0.93  0.00  0.00  0.00  0.08  0.00
  HS02004799HS02004480    1.00   0.00  0.01  0.00  0.91  0.00  0.08  0.00  0.00  0.00
  HS02004792HS02004799    1.00   0.00  0.00  0.00  1.00  0.00  0.00  0.00  0.98  0.00
  HS02004788HS02004792    1.00   0.00  0.00  0.00  1.00  0.00  0.00  0.00  0.98  0.00
  HS02004785HS02004788    1.00   0.00  0.00  0.00  1.00  0.00  0.00  0.00  0.00  0.00
  HS02004777HS02004785    1.00   0.00  0.00  0.00  1.00  0.00  0.00  0.00  0.23  0.00
  HS02004480HS02004478    1.00   0.08  0.00  0.00  0.86  0.00  0.00  0.06  0.00  0.00
  HS02004479HS02004480    1.00   0.01  0.00  0.00  0.99  0.00  0.00  0.00  0.17  0.00
  HS02004862HS02004870    1.00   0.00  0.00  0.00  1.00  0.00  0.00  0.00  0.06  0.00
  HS02004848HS02004852    1.00   0.07  0.00  0.00  0.93  0.00  0.00  0.00  0.67  0.00
  HS02004856HS02004862    1.00   0.00  0.11  0.00  0.89  0.00  0.00  0.00  0.71  0.00
  HS02004852HS02004856    1.00   0.07  0.02  0.00  0.92  0.00  0.00  0.00  0.81  0.00
  HS02004802HS02004478    1.00   0.07  0.01  0.00  0.92  0.00  0.00  0.00  0.00  0.00
  HS02004478WS02006287    1.00   0.08  0.00  0.00  0.92  0.00  0.00  0.00  0.81  0.00
  HS02004817HS02004807    1.00   0.00  0.07  0.00  0.93  0.00  0.00  0.00  0.00  0.00
  HS02004807HS02004802    1.00   0.07  0.00  0.00  0.93  0.00  0.00  0.00  0.01  0.00
  YS02001759YS02001757    1.00   0.00  0.00  0.00  1.00  0.00  0.00  0.00  0.17  0.00
  YS02001762YS02001759    1.00   0.00  0.00  0.00  1.00  0.00  0.00  0.00  0.06  0.00
  YS02001765YS02001762    1.00   0.00  0.00  0.00  1.00  0.00  0.00  0.00  0.25  0.00
  YS02001770YS02001767    1.00   0.00  0.00  0.00  1.00  0.00  0.00  0.00  0.00  0.00
  YS02001774YS02001770    1.00   0.00  0.09  0.00  0.91  0.00  0.00  0.00  0.06  0.00
  YS02001779YS02001774    1.00   0.00  0.00  0.00  1.00  0.00  0.00  0.00  0.31  0.00
  YS02001649YS02001757    1.00   0.00  0.00  0.00  1.00  0.00  0.00  0.00  0.20  0.00
  YS02001767YS02001765    1.00   0.00  0.00  0.00  1.00  0.00  0.00  0.00  0.01  0.00
  YS02006561YS02001783    1.00   0.11  0.00  0.00  0.00  0.89  0.00  0.00  0.70  0.00
  YS02001783YS02001784    1.00   0.00  0.11  0.00  0.89  0.00  0.00  0.00  0.55  0.00
  YS02001784YS02001785    1.00   0.00  0.00  0.00  1.00  0.00  0.00  0.00  0.28  0.00
  YS02001788YS02001790    1.00   0.00  0.00  0.00  0.12  0.88  0.00  0.00  1.00  0.00
  YS02001790YS02001791    1.00   0.00  0.00  0.00  0.00  1.00  0.00  0.00  0.00  0.00
  YS02001791YS02001793    1.00   0.00  0.00  0.00  0.00  1.00  0.00  0.00  0.00  0.00
  YS02001910YS02001907    1.00   0.00  0.00  0.00  0.99  0.00  0.00  0.01  0.13  0.00
  YS02001786YS02001788    1.00   0.00  0.00  0.00  0.72  0.28  0.00  0.00  0.00  0.00
  YS02001915YS02001910    1.00   0.00  0.00  0.00  1.00  0.00  0.00  0.00  0.27  0.00
  YS02001918YS02001915    1.00   0.00  0.00  0.00  0.99  0.00  0.00  0.00  0.78  0.00
  YS02001923YS02001920    1.00   0.00  0.00  0.00  1.00  0.00  0.00  0.00  1.00  0.00
  YS02001926YS02001923    1.00   0.00  0.05  0.00  0.00  0.00  0.95  0.00  0.00  0.00
  YS02001929YS02001926    1.00   0.00  0.07  0.00  0.93  0.00  0.00  0.00  0.86  0.00
  YS02001920YS02001918    1.00   0.00  0.00  0.00  1.00  0.00  0.00  0.00  0.00  0.00
  YS02001629YS02163301    1.00   0.10  0.01  0.00  0.89  0.00  0.00  0.00  0.00  0.00
  YS02001619YS02001622    1.00   0.07  0.00  0.00  0.93  0.00  0.00  0.00  0.00  0.00
  YS02001622YS02001625    1.00   0.07  0.00  0.00  0.93  0.00  0.00  0.00  0.17  0.00
  YS02001625YS02001629    1.00   0.07  0.05  0.00  0.84  0.00  0.04  0.00  0.00  0.00
  YS02163301YS02001633    1.00   0.00  0.10  0.00  0.90  0.00  0.00  0.00  0.00  0.00
  YS02163601YS02164001    1.00   0.00  0.05  0.00  0.95  0.00  0.00  0.00  0.00  0.00
  YS02164001YS02001641    1.00   0.00  0.05  0.00  0.95  0.00  0.00  0.00  0.07  0.00
  YS02001641YS02001644    1.00   0.00  0.00  0.00  1.00  0.00  0.00  0.00  0.00  0.00
  YS02001647YS02001649    1.00   0.00  0.11  0.00  0.88  0.00  0.00  0.00  0.01  0.00
  YS02006553YS02006556    1.00   0.00  0.00  0.00  1.00  0.00  0.00  0.00  0.03  0.00
  YS02006556YS02006558    1.00   0.00  0.00  0.00  1.00  0.00  0.00  0.00  0.00  0.00
  YSB6556YSB1171          1.00   0.01  0.05  0.00  0.94  0.00  0.00  0.00  0.00  0.00
  YS02001907YS02006553    1.00   0.00  0.01  0.00  0.99  0.00  0.00  0.00  0.00  0.00
  YS02006558YS02006561    1.00   0.11  0.00  0.00  0.00  0.89  0.00  0.00  0.48  0.00
  YS02001633YS02163601    1.00   0.00  0.00  0.00  1.00  0.00  0.00  0.00  0.21  0.00
  YS02001644YS02001647    1.00   0.00  0.11  0.00  0.88  0.00  0.00  0.00  0.00  0.00
  YS02001745YS02001748    1.00   0.00  0.00  0.00  0.00  0.00  0.00  1.00  0.00  0.00
  YS02001748YS02001751    1.00   0.00  0.00  0.00  0.94  0.06  0.00  0.00  0.86  0.00
  YS02001751YS02001754    1.00   0.00  0.00  0.00  0.87  0.00  0.00  0.13  0.06  0.00
  YS02001754YS02001757    1.00   0.00  0.00  0.00  1.00  0.00  0.00  0.00  0.30  0.00
  YS02001882YS02001884    1.00   0.09  0.01  0.00  0.90  0.00  0.00  0.00  0.00  0.00
  YS02001884YS02001887    1.00   0.04  0.02  0.00  0.94  0.00  0.00  0.00  0.00  0.00
  YS02001890YS02001895    1.00   0.00  0.10  0.00  0.90  0.00  0.00  0.00  0.00  0.00
  YS02001895YS02001898    1.00   0.10  0.00  0.00  0.88  0.00  0.01  0.00  0.00  0.00
  YS02001898YS02001901    1.00   0.10  0.01  0.00  0.89  0.00  0.00  0.00  0.02  0.00
  YS02001901YS02001904    1.00   0.10  0.00  0.00  0.90  0.00  0.00  0.00  0.00  0.00
  YS02001904YS02001907    1.00   0.00  0.10  0.00  0.90  0.00  0.00  0.00  0.00  0.00
  YS02001887YS02001890    1.00   0.00  0.00  0.00  0.99  0.00  0.01  0.00  0.00  0.00
  YS02001652YS02001649    1.00   0.00  0.00  0.00  1.00  0.00  0.00  0.00  0.30  0.00
  YS02001655YS02001652    1.00   0.00  0.00  0.00  0.87  0.00  0.00  0.13  0.06  0.00
  YS02001658YS02001655    1.00   0.00  0.09  0.00  0.85  0.06  0.00  0.00  0.78  0.00
  YS02001661YS02001658    1.00   0.09  0.00  0.00  0.00  0.91  0.00  0.00  0.73  0.00
  YS02001664YS02001661    1.00   0.07  0.00  0.00  0.93  0.00  0.00  0.00  0.86  0.00
  YSB1154YSB6556          1.00   0.06  0.00  0.00  0.94  0.00  0.00  0.00  0.02  0.00
  YSB1174YSB1171          1.00   0.02  0.04  0.00  0.94  0.00  0.00  0.00  0.00  0.00
  YSB1171HS02004479       1.00   0.01  0.00  0.00  0.98  0.00  0.00  0.01  0.14  0.00
  HS02004881HS02006253    1.00   0.01  0.00  0.00  0.02  0.01  0.00  0.95  0.02  0.00
  YS02001793JiankangQianchi    1.00   0.00  0.00  0.00  0.04  0.96  0.00  0.00  0.06  0.00
  YS02001757CaochengTiaoxuchi    1.00   0.00  0.17  0.00  0.83  0.00  0.00  0.00  0.00  0.00
  WSF200WS02003060        1.00   0.00  0.04  0.00  0.93  0.03  0.00  0.00  0.88  0.00
  1                       1.00   0.00  0.00  0.00  0.00  1.00  0.00  0.00  0.42  0.00
  2                       1.00   1.00  0.00  0.00  0.00  0.00  0.00  0.00  0.00  0.00
  3                       1.00   0.95  0.00  0.00  0.00  0.05  0.00  0.00  0.00  0.00
  4                       1.00   1.00  0.00  0.00  0.00  0.00  0.00  0.00  0.00  0.00
  
  
  *************************
  Conduit Surcharge Summary
  *************************
  
  ----------------------------------------------------------------------------
                                                           Hours        Hours 
                         --------- Hours Full --------   Above Full   Capacity
  Conduit                Both Ends  Upstream  Dnstream   Normal Flow   Limited
  ----------------------------------------------------------------------------
  WS02006256WS02006235        4.79      4.79      7.48      0.85         0.01
  WS02006247WS02006245        0.01      0.01      0.01      0.61         0.01
  WS02006235WS02006234        0.01      0.01      0.01      4.39         0.01
  WS02006231WS02006230        0.01      0.01      0.01      5.27         0.01
  WS02006230WS02006229        0.01      0.01      0.01      5.44         0.01
  WS02006228WS02006109        0.01      0.01      0.01      0.77         0.01
  WS02004404WS02004405        0.01      0.01      0.01      5.05         0.01
  WS02003072WS02003073        0.01      0.01      0.01      2.06         0.01
  YS02001793JiankangQianchi        0.01      0.01      0.45      0.01         0.01
  
  
  ***************
  Pumping Summary
  ***************
  
  ---------------------------------------------------------------------------------------------------------
                                                  Min       Avg       Max     Total     Power    % Time Off
                        Percent   Number of      Flow      Flow      Flow    Volume     Usage    Pump Curve
  Pump                 Utilized   Start-Ups       LPS       LPS       LPS  10^6 ltr     Kw-hr    Low   High
  ---------------------------------------------------------------------------------------------------------
  CC-Pump-1               51.06          11      0.00     48.08     81.62     0.656      2.66    0.0  100.0
  CC-Pump-2               55.35           8      0.00     50.51    178.16     0.744      3.02    0.0  100.0
  JK-Pump-1               89.35           5      0.00     37.68    299.92     0.726     13.32    0.0    0.0
  JK-Pump-2               87.24           4      0.00     37.72    300.00     0.681     12.50    0.0    0.0
  XR-Pump-1               95.75           3      0.00     81.50     95.00     2.166     47.83    0.0    0.0
  XR-Pump-2               85.10           4      0.00     69.86     95.00     1.682     36.23    0.0    0.0
  XR-Pump-3               82.98           7      0.00     64.37     95.00     1.568     34.66    0.0    0.0
  XR-Pump-4               76.57           8      0.00     70.14     95.00     1.510     33.17    0.0    0.0
  

  Analysis begun on:  Tue Dec 21 13:46:51 2021
  Analysis ended on:  Tue Dec 21 13:46:53 2021
  Total elapsed time: 00:00:02