
  EPA STORM WATER MANAGEMENT MODEL - VERSION 5.1 (Build 5.3.0.dev0)
  --------------------------------------------------------------

  WARNING 04: minimum elevation drop used for Conduit WS02004404WS02004405
  WARNING 03: negative offset ignored for Link YS02001904YS02001907
  
  *********************************************************
  NOTE: The summary statistics displayed in this report are
  based on results found at every computational time step,  
  not just on results from each reporting time step.
  *********************************************************
  
  ****************
  Analysis Options
  ****************
  Flow Units ............... LPS
  Process Models:
    Rainfall/Runoff ........ YES
    RDII ................... NO
    Snowmelt ............... NO
    Groundwater ............ NO
    Flow Routing ........... YES
    Ponding Allowed ........ NO
    Water Quality .......... NO
  Infiltration Method ...... HORTON
  Flow Routing Method ...... DYNWAVE
  Surcharge Method ......... EXTRAN
  Starting Date ............ 08/28/2015 08:00:00
  Ending Date .............. 08/28/2015 15:50:00
  Antecedent Dry Days ...... 8.0
  Report Time Step ......... 00:01:00
  Wet Time Step ............ 00:01:00
  Dry Time Step ............ 00:01:00
  Routing Time Step ........ 5.00 sec
  Variable Time Step ....... YES
  Maximum Trials ........... 8
  Number of Threads ........ 4
  Head Tolerance ........... 0.001500 m
  
  
  **************************        Volume         Depth
  Runoff Quantity Continuity     hectare-m            mm
  **************************     ---------       -------
  Total Precipitation ......         2.737         5.993
  Evaporation Loss .........         0.000         0.000
  Infiltration Loss ........         0.688         1.506
  Surface Runoff ...........         1.163         2.547
  Final Storage ............         0.887         1.941
  Continuity Error (%) .....        -0.018
  
  
  **************************        Volume        Volume
  Flow Routing Continuity        hectare-m      10^6 ltr
  **************************     ---------     ---------
  Dry Weather Inflow .......         0.616         6.165
  Wet Weather Inflow .......         1.163        11.626
  Groundwater Inflow .......         0.000         0.000
  RDII Inflow ..............         0.000         0.000
  External Inflow ..........         0.102         1.024
  External Outflow .........         1.722        17.222
  Flooding Loss ............         0.016         0.164
  Evaporation Loss .........         0.000         0.000
  Exfiltration Loss ........         0.000         0.000
  Initial Stored Volume ....         0.076         0.761
  Final Stored Volume ......         0.357         3.572
  Continuity Error (%) .....        -7.075
  
  
  *************************
  Highest Continuity Errors
  *************************
  Node JK-storage (-38.88%)
  Node HS02004842 (28.25%)
  Node YS02001884 (22.35%)
  Node YS02001774 (8.93%)
  Node YSB1171 (6.84%)
  
  
  ***************************
  Time-Step Critical Elements
  ***************************
  Link WS02006252WS02006251 (44.43%)
  Link 3 (43.17%)
  Link WS02006238WS02006235 (4.59%)
  Link WS02006280WS02006229 (1.92%)
  
  
  ********************************
  Highest Flow Instability Indexes
  ********************************
  Link WS02006113WS02006111 (42)
  Link WS02006111WS02006112 (20)
  Link YS02006558YS02006561 (14)
  Link YS02164001YS02001641 (4)
  Link YS02001641YS02001644 (4)
  
  
  *************************
  Routing Time Step Summary
  *************************
  Minimum Time Step           :     0.47 sec
  Average Time Step           :     0.94 sec
  Maximum Time Step           :     5.00 sec
  Percent in Steady State     :    -0.00
  Average Iterations per Step :     2.18
  Percent Not Converging      :     1.97
  
  
  ***************************
  Subcatchment Runoff Summary
  ***************************
  
  ------------------------------------------------------------------------------------------------------------------------------
                            Total      Total      Total      Total     Imperv       Perv      Total       Total     Peak  Runoff
                           Precip      Runon       Evap      Infil     Runoff     Runoff     Runoff      Runoff   Runoff   Coeff
  Subcatchment                 mm         mm         mm         mm         mm         mm         mm    10^6 ltr      LPS
  ------------------------------------------------------------------------------------------------------------------------------
  sub0                       5.99       0.00       0.00       0.42       4.31       0.00       4.31        0.00     1.60   0.719
  sub1                       5.99       0.00       0.00       0.66       4.08       0.00       4.08        0.03     8.14   0.681
  sub2                       5.99       0.00       0.00       2.22       2.87       0.00       2.87        0.03     7.15   0.479
  sub3                       5.99       0.00       0.00       2.22       2.84       0.00       2.84        0.06    14.58   0.473
  sub4                       5.99       0.00       0.00       0.66       3.94       0.00       3.94        0.08    16.23   0.658
  sub5                       5.99       0.00       0.00       0.42       4.26       0.00       4.26        0.05    14.47   0.711
  sub7                       5.99       0.00       0.00       0.54       4.20       0.00       4.20        0.01     5.17   0.701
  sub8                       5.99       0.00       0.00       0.54       4.19       0.00       4.19        0.03     9.08   0.699
  sub9                       5.99       0.00       0.00       0.54       4.19       0.00       4.19        0.02     6.72   0.699
  sub10                      5.99       0.00       0.00       0.48       4.22       0.00       4.22        0.05    14.48   0.705
  sub11                      5.99       0.00       0.00       0.48       4.24       0.00       4.24        0.05    17.11   0.707
  sub12                      5.99       0.00       0.00       0.78       4.03       0.00       4.03        0.04    14.66   0.672
  sub14                      5.99       0.00       0.00       0.54       4.19       0.00       4.19        0.04    13.13   0.699
  sub15                      5.99       0.00       0.00       1.80       3.22       0.00       3.22        0.06    17.78   0.537
  sub16                      5.99       0.00       0.00       1.98       3.10       0.00       3.10        0.03    12.85   0.517
  sub17                      5.99       0.00       0.00       1.92       3.14       0.00       3.14        0.03    10.35   0.524
  sub22                      5.99       0.00       0.00       2.58       2.63       0.00       2.63        0.17    58.61   0.438
  sub23                      5.99       0.00       0.00       2.22       2.91       0.00       2.91        0.14    49.95   0.485
  sub60                      5.99       0.00       0.00       0.72       2.84       0.00       2.84        0.86    79.26   0.473
  sub61                      5.99       0.00       0.00       1.02       3.03       0.00       3.03        0.94   100.33   0.506
  sub62                      5.99       0.00       0.00       0.48       3.25       0.00       3.25        1.00   102.25   0.543
  sub63                      5.99       0.00       0.00       1.74       2.70       0.00       2.70        0.82    94.01   0.451
  sub64                      5.99       0.00       0.00       0.90       2.71       0.00       2.71        0.82    75.25   0.453
  sub65                      5.99       0.00       0.00       0.78       2.75       0.00       2.75        0.84    76.32   0.458
  sub66                      5.99       0.00       0.00       1.74       2.37       0.00       2.37        0.73    69.14   0.395
  sub67                      5.99       0.00       0.00       0.48       3.57       0.00       3.57        1.10   132.46   0.596
  sub68                      5.99       0.00       0.00       0.84       3.23       0.00       3.23        0.99   111.20   0.538
  sub69                      5.99       0.00       0.00       0.90       3.48       0.00       3.48        0.81   111.68   0.581
  sub70                      5.99       3.55       0.00       3.25       4.28       0.00       4.28        0.98    88.41   0.448
  sub71                      5.99       0.00       0.00       0.48       3.11       0.00       3.11        0.73    71.14   0.519
  sub72                      5.99       0.00       0.00       0.42       2.20       0.00       2.20        0.45    33.50   0.367
  sub73                      5.99       4.16       0.00       3.45       4.36       0.00       4.36        1.02    75.96   0.429
  sub74                      5.99       0.00       0.00       4.49       1.05       0.00       1.05        0.42    62.58   0.175
  
  
  ******************
  Node Depth Summary
  ******************
  
  ---------------------------------------------------------------------------------
                                 Average  Maximum  Maximum  Time of Max    Reported
                                   Depth    Depth      HGL   Occurrence   Max Depth
  Node                 Type       Meters   Meters   Meters  days hr:min      Meters
  ---------------------------------------------------------------------------------
  WS02001211           JUNCTION     0.67     0.77     5.60     0  04:41        0.77
  WS02001212           JUNCTION     0.39     0.47     5.54     0  04:41        0.47
  WS02001213           JUNCTION     0.62     0.71     5.47     0  07:21        0.71
  WS02003069           JUNCTION     0.44     0.53     5.12     0  02:41        0.53
  WS02003072           JUNCTION     0.50     0.60     4.97     0  02:42        0.60
  WS02003073           JUNCTION     0.30     0.36     4.43     0  02:42        0.36
  WS02003060           JUNCTION     0.39     0.47     5.40     0  02:40        0.47
  WS02003066           JUNCTION     0.23     0.29     5.84     0  02:39        0.29
  WS02003059           JUNCTION     0.68     0.76     5.45     0  07:22        0.76
  WS02003067           JUNCTION     0.56     0.69     6.01     0  02:38        0.69
  WS02004401           JUNCTION     0.66     0.82     6.82     0  02:34        0.82
  WS02004402           JUNCTION     0.69     0.85     6.81     0  02:34        0.85
  WS02004403           JUNCTION     0.71     0.87     6.80     0  02:35        0.87
  WS02004404           JUNCTION     0.79     0.94     6.79     0  02:35        0.94
  WS02004406           JUNCTION     0.80     0.94     6.77     0  02:35        0.94
  WS02004409           JUNCTION     0.48     0.64     6.41     0  02:38        0.64
  WS02004410           JUNCTION     0.50     0.66     6.38     0  02:38        0.66
  WS02004411           JUNCTION     0.52     0.67     6.35     0  02:38        0.67
  WS02004412           JUNCTION     0.53     0.68     6.32     0  02:38        0.68
  WS02004413           JUNCTION     0.69     0.84     6.31     0  02:38        0.84
  WS02004405           JUNCTION     0.79     0.93     6.78     0  02:35        0.93
  WS02006109           JUNCTION     0.74     0.93     7.55     0  02:30        0.93
  WS02006110           JUNCTION     0.74     0.89     7.48     0  02:30        0.89
  WS02006111           JUNCTION     0.21     0.28     6.98     0  02:31        0.28
  WS02006112           JUNCTION     0.83     1.01     6.90     0  02:33        1.01
  WS02006113           JUNCTION     0.33     0.44     7.33     0  02:29        0.44
  WS02006115           JUNCTION     0.55     0.72     6.86     0  02:34        0.72
  WS02006116           JUNCTION     0.63     0.80     6.84     0  02:34        0.80
  WS02006230           JUNCTION     0.71     0.95     7.70     0  02:52        0.95
  WS02006231           JUNCTION     0.48     0.64     7.76     0  02:52        0.64
  WS02006232           JUNCTION     0.61     0.78     7.82     0  02:52        0.78
  WS02006234           JUNCTION     0.53     0.73     7.88     0  02:52        0.73
  WS02006235           JUNCTION     0.57     0.76     7.93     0  02:52        0.76
  WS02006238           JUNCTION     0.59     0.79     7.94     0  02:51        0.79
  WS02006240           JUNCTION     0.49     0.72     8.01     0  02:51        0.72
  WS02006242           JUNCTION     0.54     0.79     8.06     0  02:51        0.79
  WS02006243           JUNCTION     0.42     0.68     8.10     0  02:51        0.68
  WS02006245           JUNCTION     0.40     0.65     8.14     0  02:51        0.65
  WS02006247           JUNCTION     0.42     0.66     8.16     0  02:52        0.66
  WS02006248           JUNCTION     0.37     0.60     8.19     0  02:52        0.60
  WS02006249           JUNCTION     0.40     0.61     8.21     0  02:52        0.61
  WS02006239           JUNCTION     0.55     0.77     7.98     0  02:51        0.77
  WS02006251           JUNCTION     0.39     0.64     8.31     0  02:53        0.64
  WS02006252           JUNCTION     0.35     0.58     8.83     0  02:50        0.58
  WS02006253           JUNCTION     0.42     0.67     8.31     0  02:52        0.67
  WS02006256           JUNCTION     1.04     1.21     8.14     0  03:20        1.21
  WS02004138           JUNCTION     0.15     0.19     7.44     0  00:50        0.19
  WS02004407           JUNCTION     0.22     0.29     6.60     0  02:35        0.29
  WS02006228           JUNCTION     0.74     0.96     7.61     0  02:30        0.96
  WS02006229           JUNCTION     0.72     0.95     7.65     0  02:30        0.95
  WS02006280           JUNCTION     0.06     0.15     8.42     0  02:17        0.15
  WS02006284           JUNCTION     0.35     0.49     8.89     0  02:17        0.49
  WS02006287           JUNCTION     0.08     0.22     9.18     0  02:16        0.22
  WSF200               JUNCTION     0.21     0.30     5.53     0  02:38        0.30
  HS02004901           JUNCTION     0.11     0.24    10.06     0  02:14        0.24
  HS02004881           JUNCTION     0.01     0.03     9.05     0  02:16        0.03
  HS02004876           JUNCTION     0.04     0.10     9.13     0  02:14        0.10
  HS02004870           JUNCTION     0.01     0.04     9.33     0  02:17        0.04
  HS02004862           JUNCTION     0.01     0.05     9.43     0  02:17        0.05
  HS02004856           JUNCTION     0.07     0.11     9.53     0  02:17        0.11
  HS02004852           JUNCTION     0.01     0.03     9.54     0  02:18        0.03
  HS02004848           JUNCTION     0.01     0.03     9.63     0  02:16        0.03
  HS02004842           JUNCTION     0.33     0.36     9.63     0  02:16        0.36
  HS02004837           JUNCTION     0.03     0.05     9.63     0  02:16        0.05
  HS02004830           JUNCTION     0.04     0.06     9.53     0  02:16        0.06
  HS02004824           JUNCTION     0.02     0.04     9.44     0  02:19        0.04
  HS02004817           JUNCTION     0.42     0.53     9.38     0  02:17        0.53
  HS02004807           JUNCTION     0.11     0.21     9.38     0  02:17        0.21
  HS02004802           JUNCTION     0.15     0.24     9.37     0  02:17        0.24
  HS02004799           JUNCTION     0.10     0.27     9.48     0  02:15        0.27
  HS02004792           JUNCTION     0.02     0.10     9.63     0  02:14        0.10
  HS02004788           JUNCTION     0.02     0.08     9.98     0  02:15        0.08
  HS02004785           JUNCTION     0.04     0.14    10.04     0  02:15        0.14
  HS02004777           JUNCTION     0.13     0.26    10.06     0  02:15        0.26
  HS02004770           JUNCTION     0.10     0.23    10.06     0  02:14        0.23
  HS02004480           JUNCTION     0.07     0.21     9.45     0  02:16        0.21
  HS02004479           JUNCTION     0.10     0.25     9.45     0  02:15        0.25
  HS02004478           JUNCTION     0.05     0.13     9.36     0  02:16        0.13
  YS02001745           JUNCTION     0.08     0.12     7.64     0  02:56        0.12
  YS02001748           JUNCTION     0.34     0.52     7.60     0  06:55        0.52
  YS02001751           JUNCTION     0.52     0.72     7.60     0  06:54        0.72
  YS02001754           JUNCTION     0.77     0.99     7.60     0  06:54        0.99
  YS02001762           JUNCTION     0.97     1.20     7.60     0  06:58        1.19
  YS02001765           JUNCTION     0.92     1.15     7.60     0  06:53        1.15
  YS02001767           JUNCTION     0.88     1.12     7.61     0  05:08        1.11
  YS02001770           JUNCTION     0.88     1.11     7.61     0  06:55        1.11
  YS02001774           JUNCTION     0.95     1.18     7.61     0  06:55        1.18
  YS02001779           JUNCTION     0.70     0.92     7.61     0  06:55        0.92
  YS02001882           JUNCTION     0.29     0.47     7.18     0  02:45        0.47
  YS02001884           JUNCTION     0.39     0.57     7.18     0  02:45        0.57
  YS02001759           JUNCTION     1.00     1.23     7.60     0  06:58        1.23
  YS02001887           JUNCTION     0.46     0.65     7.18     0  02:51        0.65
  YS02001890           JUNCTION     0.49     0.68     7.18     0  02:50        0.68
  YS02001898           JUNCTION     0.26     0.43     7.17     0  02:50        0.43
  YS02001901           JUNCTION     0.38     0.56     7.17     0  02:48        0.56
  YS02001904           JUNCTION     0.36     0.53     7.16     0  02:49        0.53
  YS02001907           JUNCTION     0.69     0.87     7.16     0  02:51        0.87
  YS02001910           JUNCTION     0.48     0.66     7.16     0  02:49        0.66
  YS02001915           JUNCTION     0.28     0.45     7.16     0  02:48        0.44
  YS02001918           JUNCTION     0.08     0.10     7.16     0  03:03        0.10
  YS02001619           JUNCTION     0.48     0.68     7.61     0  06:57        0.68
  YS02001629           JUNCTION     0.83     1.06     7.61     0  07:00        1.05
  YS02001641           JUNCTION     0.93     1.18     7.62     0  06:58        1.18
  YS02001644           JUNCTION     0.94     1.18     7.62     0  06:58        1.18
  YS02001652           JUNCTION     0.78     1.01     7.61     0  06:56        1.01
  YS02001655           JUNCTION     0.55     0.76     7.61     0  06:56        0.76
  YS02001920           JUNCTION     0.18     0.21     7.22     0  03:02        0.21
  YS02001923           JUNCTION     0.07     0.09     7.35     0  03:01        0.09
  YS02001926           JUNCTION     0.14     0.18     7.62     0  03:01        0.18
  YS02001929           JUNCTION     0.07     0.09     7.78     0  03:01        0.09
  YS02001658           JUNCTION     0.28     0.47     7.61     0  06:56        0.47
  YS02001661           JUNCTION     0.15     0.21     7.62     0  06:57        0.21
  YS02001664           JUNCTION     0.07     0.12     8.04     0  02:41        0.12
  YS02001622           JUNCTION     0.50     0.70     7.60     0  06:55        0.69
  YS02001633           JUNCTION     0.92     1.16     7.61     0  06:58        1.15
  YS02001649           JUNCTION     0.97     1.22     7.61     0  06:56        1.21
  YS02001757           JUNCTION     1.10     1.34     7.60     0  06:54        1.34
  YS02001895           JUNCTION     0.26     0.43     7.17     0  02:50        0.43
  YS02001625           JUNCTION     0.78     1.00     7.60     0  06:56        1.00
  YS02163301           JUNCTION     0.86     1.09     7.61     0  06:58        1.09
  YS02163601           JUNCTION     0.97     1.22     7.61     0  06:58        1.21
  YS02164001           JUNCTION     0.91     1.16     7.61     0  06:58        1.15
  YS02001647           JUNCTION     0.77     1.01     7.62     0  06:58        1.00
  YSB1154              JUNCTION     0.24     0.39     9.45     0  02:16        0.39
  YSB6556              JUNCTION     0.13     0.28     9.45     0  02:15        0.28
  YSB1174              JUNCTION     0.19     0.34     9.45     0  02:15        0.34
  YSB1171              JUNCTION     0.39     0.55     9.45     0  02:15        0.55
  YS02006553           JUNCTION     0.69     0.88     7.16     0  02:49        0.88
  YS02006561           JUNCTION     0.14     0.23     6.89     0  02:46        0.23
  YS02006556           JUNCTION     0.67     0.85     7.16     0  02:47        0.85
  YS02006558           JUNCTION     0.71     0.89     7.16     0  02:47        0.89
  YS02001783           JUNCTION     0.25     0.41     6.56     0  02:46        0.41
  YS02001784           JUNCTION     0.28     0.44     6.51     0  02:47        0.44
  YS02001786           JUNCTION     0.24     0.37     6.40     0  02:47        0.37
  YS02001788           JUNCTION     0.17     0.28     6.26     0  02:47        0.28
  YS02001790           JUNCTION     0.21     0.34     5.99     0  02:48        0.34
  YS02001791           JUNCTION     0.14     0.22     5.69     0  02:48        0.22
  YS02001793           JUNCTION     0.09     0.14     4.97     0  02:29        0.14
  WS02004139           JUNCTION     0.61     0.71     5.62     0  04:40        0.71
  WSC                  OUTFALL      0.30     0.36     1.03     0  02:43        0.36
  3                    OUTFALL      0.09     0.20     6.20     0  03:20        0.20
  4                    OUTFALL      0.03     0.11     7.11     0  02:52        0.11
  5                    OUTFALL      0.00     0.00     5.00     0  00:00        0.00
  JK-storage           STORAGE      0.32     3.97     4.77     0  03:15        3.97
  CC-storage           STORAGE      0.33     0.59     7.59     0  06:56        0.59
  XR-storage           STORAGE      6.22     7.72     5.72     0  04:18        7.72
  
  
  *******************
  Node Inflow Summary
  *******************
  
  -------------------------------------------------------------------------------------------------
                                  Maximum  Maximum                  Lateral       Total        Flow
                                  Lateral    Total  Time of Max      Inflow      Inflow     Balance
                                   Inflow   Inflow   Occurrence      Volume      Volume       Error
  Node                 Type           LPS      LPS  days hr:min    10^6 ltr    10^6 ltr     Percent
  -------------------------------------------------------------------------------------------------
  WS02001211           JUNCTION      7.35   382.30     0  00:50       0.207        7.04       0.529
  WS02001212           JUNCTION      0.00   378.91     0  00:51           0           7       0.290
  WS02001213           JUNCTION      0.00   378.34     0  00:51           0        6.98       0.339
  WS02003069           JUNCTION      0.32   806.96     0  02:41     0.00902          14       0.223
  WS02003072           JUNCTION      0.00   806.91     0  02:41           0          14       0.272
  WS02003073           JUNCTION      1.82   808.74     0  02:42      0.0514          14       0.311
  WS02003060           JUNCTION     16.53   806.66     0  02:40       0.466        14.1       0.211
  WS02003066           JUNCTION      0.00   500.42     0  02:39           0        6.69       0.067
  WS02003059           JUNCTION      0.00   376.93     0  00:52           0        6.96       0.570
  WS02003067           JUNCTION      0.00   500.41     0  02:39           0         6.7       0.141
  WS02004401           JUNCTION      0.00   503.52     0  02:33           0        6.93       0.306
  WS02004402           JUNCTION      0.00   503.02     0  02:33           0        6.91       0.289
  WS02004403           JUNCTION      0.00   502.77     0  02:34           0        6.89       0.264
  WS02004404           JUNCTION      0.16   502.81     0  02:35     0.00457        6.88       0.200
  WS02004406           JUNCTION      0.00   502.99     0  02:35           0        6.84       0.486
  WS02004409           JUNCTION      0.00   502.65     0  02:35           0         6.8       0.241
  WS02004410           JUNCTION      0.00   501.67     0  02:36           0        6.79       0.273
  WS02004411           JUNCTION      0.00   500.99     0  02:37           0        6.77       0.281
  WS02004412           JUNCTION      0.00   500.68     0  02:37           0        6.75       0.304
  WS02004413           JUNCTION      0.00   500.45     0  02:38           0        6.73       0.450
  WS02004405           JUNCTION      0.04   502.86     0  02:35     0.00107        6.86       0.298
  WS02006109           JUNCTION      1.23   501.23     0  02:30      0.0347        7.02       0.256
  WS02006110           JUNCTION      0.00   501.24     0  02:30           0        7.01       0.292
  WS02006111           JUNCTION      0.00   516.32     0  02:33           0        6.98       0.059
  WS02006112           JUNCTION     10.35   509.89     0  02:30      0.0269           7       0.414
  WS02006113           JUNCTION      0.00   501.53     0  02:30           0        6.99       0.135
  WS02006115           JUNCTION      0.00   506.71     0  02:31           0        6.97       0.283
  WS02006116           JUNCTION      0.00   504.37     0  02:33           0        6.95       0.270
  WS02006230           JUNCTION     10.28   398.64     0  03:30        0.29        6.11       0.224
  WS02006231           JUNCTION      0.00   388.18     0  03:30           0        5.83       0.145
  WS02006232           JUNCTION      0.00   388.16     0  03:30           0        5.84       0.268
  WS02006234           JUNCTION      0.00   388.09     0  03:30           0        5.85       0.126
  WS02006235           JUNCTION      0.00   388.07     0  03:30           0         5.9       0.179
  WS02006238           JUNCTION      0.00   343.43     0  04:00           0        3.88       0.190
  WS02006240           JUNCTION      0.00   338.97     0  04:00           0        3.86       0.291
  WS02006242           JUNCTION      0.00   335.15     0  04:00           0        3.86       0.360
  WS02006243           JUNCTION      0.00   329.00     0  04:01           0        3.85      -0.042
  WS02006245           JUNCTION      0.00   329.12     0  07:10           0        3.86       0.245
  WS02006247           JUNCTION      0.00   333.24     0  07:10           0        3.87       0.178
  WS02006248           JUNCTION      0.00   337.29     0  07:10           0        3.87       0.063
  WS02006249           JUNCTION      0.00   421.46     0  02:50           0        4.36       0.299
  WS02006239           JUNCTION      0.00   342.09     0  04:00           0        3.87       0.284
  WS02006251           JUNCTION      0.08   421.97     0  02:50     0.00217        4.39       0.191
  WS02006252           JUNCTION      0.00   400.00     0  02:50           0        4.22       0.011
  WS02006253           JUNCTION      1.60    45.28     0  02:16     0.00349        0.17       2.230
  WS02006256           JUNCTION      0.00   600.00     0  03:20           0        4.81       0.054
  WS02004138           JUNCTION      0.00   379.97     0  04:40           0        6.87       0.068
  WS02004407           JUNCTION      0.00   502.74     0  02:35           0        6.81       0.107
  WS02006228           JUNCTION      0.00   500.01     0  02:30           0           7       0.199
  WS02006229           JUNCTION      0.00   499.90     0  02:30           0        7.02       0.174
  WS02006280           JUNCTION      0.00   230.87     0  02:17           0       0.922       0.007
  WS02006284           JUNCTION      0.10   230.85     0  02:17      0.0027       0.923       0.114
  WS02006287           JUNCTION      0.00   230.70     0  02:17           0       0.921       0.079
  WSF200               JUNCTION      0.00   500.43     0  02:39           0        6.69       0.062
  HS02004901           JUNCTION     12.85    12.85     0  02:09      0.0324      0.0325       5.705
  HS02004881           JUNCTION      5.17    44.07     0  02:16      0.0141       0.149       0.224
  HS02004876           JUNCTION      8.14    39.26     0  02:16      0.0271       0.135       0.391
  HS02004870           JUNCTION      9.08    31.31     0  02:16      0.0268       0.108       0.098
  HS02004862           JUNCTION      7.35    22.88     0  02:17      0.0324      0.0818       0.207
  HS02004856           JUNCTION      6.72    15.60     0  02:16      0.0201      0.0509       2.911
  HS02004852           JUNCTION      0.00     9.33     0  02:16           0      0.0308       0.164
  HS02004848           JUNCTION     14.58    14.58     0  02:19      0.0638      0.0638       0.068
  HS02004842           JUNCTION      0.00     5.80     0  02:28           0       0.046      39.379
  HS02004837           JUNCTION     20.83    25.68     0  02:15       0.226       0.259       0.314
  HS02004830           JUNCTION      0.15    25.81     0  02:16     0.00423       0.249       0.497
  HS02004824           JUNCTION     16.28    41.89     0  02:19      0.0836       0.331       0.163
  HS02004817           JUNCTION      0.60    42.49     0  02:19      0.0169       0.348       5.033
  HS02004807           JUNCTION     17.11    57.99     0  02:18      0.0492        0.38       1.124
  HS02004802           JUNCTION      0.00    58.34     0  02:19           0       0.376       1.092
  HS02004799           JUNCTION     13.13   147.39     0  02:14      0.0398       0.481       0.474
  HS02004792           JUNCTION     58.89   134.59     0  02:14       0.174       0.441       0.093
  HS02004788           JUNCTION     19.45    78.34     0  02:15       0.102       0.269       0.146
  HS02004785           JUNCTION      0.15    59.35     0  02:14     0.00423       0.168       0.288
  HS02004777           JUNCTION      0.03    59.85     0  02:13    0.000846       0.168       3.169
  HS02004770           JUNCTION     49.95    61.25     0  02:11       0.139       0.169       1.862
  HS02004480           JUNCTION      0.00   173.67     0  02:16           0       0.561       0.131
  HS02004479           JUNCTION      0.00    26.95     0  02:17           0      0.0929       0.791
  HS02004478           JUNCTION      0.00   230.70     0  02:17           0       0.922       0.068
  YS02001745           JUNCTION     79.27    79.27     0  02:56        0.86        0.86       0.103
  YS02001748           JUNCTION      0.04   156.61     0  04:19     0.00127       0.982       0.551
  YS02001751           JUNCTION      0.01   197.30     0  03:58     0.00031       0.977       1.398
  YS02001754           JUNCTION      0.26   162.97     0  04:13     0.00733       0.924       2.257
  YS02001762           JUNCTION      0.00   136.32     0  03:56           0       0.939       2.219
  YS02001765           JUNCTION      0.00   123.51     0  02:36           0       0.939       2.511
  YS02001767           JUNCTION      0.54   153.26     0  03:26      0.0151       0.959       3.640
  YS02001770           JUNCTION    102.41   145.63     0  03:26           1        1.14       2.650
  YS02001774           JUNCTION      0.00    74.84     0  05:07           0        0.28       9.811
  YS02001779           JUNCTION      0.01    72.82     0  05:07    0.000141       0.122      11.419
  YS02001882           JUNCTION      0.00     4.65     0  02:07           0     0.00555      43.792
  YS02001884           JUNCTION      0.00    13.25     0  02:07           0      0.0219      28.778
  YS02001759           JUNCTION    100.37   215.65     0  02:36       0.936        1.84       1.226
  YS02001887           JUNCTION    132.91   132.91     0  02:39        1.12        1.13       0.642
  YS02001890           JUNCTION      0.00   132.35     0  02:41           0         1.1       0.720
  YS02001898           JUNCTION      0.00   132.22     0  02:46           0        1.09       0.203
  YS02001901           JUNCTION      0.00   132.62     0  02:46           0        1.09       0.512
  YS02001904           JUNCTION      0.00   132.12     0  02:46           0        1.09       0.476
  YS02001907           JUNCTION      0.00   237.39     0  02:47           0        2.33       0.956
  YS02001910           JUNCTION      0.00   108.48     0  02:58           0        1.26       0.818
  YS02001915           JUNCTION     71.16   106.85     0  02:59       0.735        1.26       0.366
  YS02001918           JUNCTION      0.00    36.38     0  03:02           0       0.526       0.219
  YS02001619           JUNCTION     69.14    69.14     0  02:53       0.725       0.727       0.846
  YS02001629           JUNCTION      0.00   121.80     0  03:55           0       0.712       2.602
  YS02001641           JUNCTION      0.00   169.22     0  03:54           0        1.44       1.381
  YS02001644           JUNCTION     75.28   237.37     0  03:04       0.825        2.24       1.106
  YS02001652           JUNCTION      0.00   157.81     0  04:12           0       0.915       2.192
  YS02001655           JUNCTION      0.15   204.16     0  04:04     0.00434       0.956       1.609
  YS02001920           JUNCTION      2.87    36.39     0  03:01      0.0809       0.528       0.393
  YS02001923           JUNCTION      0.04    33.53     0  03:01     0.00106       0.448       0.069
  YS02001926           JUNCTION      0.05    33.54     0  03:01     0.00147       0.449       0.491
  YS02001929           JUNCTION     33.50    33.50     0  03:01       0.448       0.448       0.067
  YS02001658           JUNCTION      0.00   148.33     0  04:25           0       0.965       0.582
  YS02001661           JUNCTION      0.00    94.01     0  02:41           0       0.826       0.084
  YS02001664           JUNCTION     94.01    94.01     0  02:41       0.817       0.817       0.020
  YS02001622           JUNCTION      0.00    95.01     0  03:56           0       0.729       2.430
  YS02001633           JUNCTION     76.52   173.01     0  03:21        0.85        1.49       2.015
  YS02001649           JUNCTION      0.00   341.66     0  03:18           0        3.06       1.221
  YS02001757           JUNCTION      0.00   586.70     0  02:56           0         5.6       1.665
  YS02001895           JUNCTION      0.00   132.13     0  02:45           0        1.09       0.347
  YS02001625           JUNCTION      0.00   136.97     0  03:56           0       0.747       4.638
  YS02163301           JUNCTION      0.00   128.71     0  03:16           0       0.668       3.455
  YS02163601           JUNCTION      0.11   158.52     0  03:17      0.0031        1.45       1.995
  YS02164001           JUNCTION      0.00   164.11     0  03:54           0        1.44       1.243
  YS02001647           JUNCTION      0.00   242.26     0  03:17           0         2.2       1.149
  YSB1154              JUNCTION     14.47    14.47     0  02:13      0.0483      0.0497       2.994
  YSB6556              JUNCTION      0.00    14.37     0  02:15           0      0.0507       2.520
  YSB1174              JUNCTION     14.66    14.66     0  02:08      0.0351      0.0362       3.674
  YSB1171              JUNCTION      0.00    26.92     0  02:15           0      0.0924       7.340
  YS02006553           JUNCTION      0.00   237.15     0  02:58           0        2.32       0.620
  YS02006561           JUNCTION      0.00   355.31     0  02:50           0        3.29       0.020
  YS02006556           JUNCTION      0.00   237.13     0  02:58           0        2.33       0.447
  YS02006558           JUNCTION    112.08   348.10     0  02:47        1.02        3.32       0.138
  YS02001783           JUNCTION      0.00   347.93     0  02:46           0        3.29       0.047
  YS02001784           JUNCTION      1.06   348.92     0  02:47      0.0299        3.32       0.078
  YS02001786           JUNCTION      0.06   348.94     0  02:47     0.00159        3.31       0.075
  YS02001788           JUNCTION      0.07   348.96     0  02:47       0.002        3.31       0.044
  YS02001790           JUNCTION      0.15   349.14     0  02:48     0.00437        3.32       0.055
  YS02001791           JUNCTION      0.00   349.04     0  02:48           0        3.31       0.027
  YS02001793           JUNCTION      0.00   349.05     0  02:48           0        3.31       0.011
  WS02004139           JUNCTION      0.32   379.79     0  00:50     0.00905        6.87       0.556
  WSC                  OUTFALL       0.00   808.74     0  02:43           0          14       0.000
  3                    OUTFALL       0.00   508.28     0  03:20           0        2.76       0.000
  4                    OUTFALL       0.00   127.37     0  02:52           0       0.478       0.000
  5                    OUTFALL       0.00     0.00     0  00:00           0           0       0.000 ltr
  JK-storage           STORAGE       0.00   349.05     0  02:48           0        3.46     -27.996
  CC-storage           STORAGE       0.00   586.95     0  02:55           0        5.43       0.471
  XR-storage           STORAGE     329.03   329.03     0  02:48        7.08        7.68      -0.002
  
  
  **********************
  Node Surcharge Summary
  **********************
  
  Surcharging occurs when water rises above the top of the highest conduit.
  ---------------------------------------------------------------------
                                               Max. Height   Min. Depth
                                   Hours       Above Crown    Below Rim
  Node                 Type      Surcharged         Meters       Meters
  ---------------------------------------------------------------------
  WS02006109           JUNCTION        1.95          0.110        1.710
  WS02006112           JUNCTION        0.30          0.013        1.667
  WS02006232           JUNCTION        2.03          0.079        1.401
  WS02006234           JUNCTION        0.13          0.005        1.235
  WS02006235           JUNCTION        1.18          0.053        1.237
  WS02006238           JUNCTION        1.50          0.072        1.358
  WS02006240           JUNCTION        0.43          0.010        1.380
  WS02006242           JUNCTION        1.26          0.061        0.759
  WS02006239           JUNCTION        0.73          0.027        1.263
  WS02006252           JUNCTION        1.77          0.184        0.916
  WS02006228           JUNCTION        1.86          0.129        2.071
  YS02001762           JUNCTION        4.32          0.196        0.954
  YS02001765           JUNCTION        3.11          0.147        0.953
  YS02001767           JUNCTION        1.76          0.120        0.910
  YS02001770           JUNCTION        1.27          0.080        0.840
  YS02001774           JUNCTION        3.64          0.185        0.865
  YS02001759           JUNCTION        5.24          0.234        0.976
  YS02001641           JUNCTION        3.45          0.178        0.922
  YS02001644           JUNCTION        3.54          0.183        0.737
  YS02001633           JUNCTION        2.58          0.136        0.924
  YS02001649           JUNCTION        4.75          0.216        0.834
  YS02001757           JUNCTION        5.38          0.340        0.870
  YS02163301           JUNCTION        1.36          0.091        0.939
  YS02163601           JUNCTION        4.56          0.215        0.865
  YS02164001           JUNCTION        3.00          0.157        0.943
  YS02001647           JUNCTION        0.02          0.005        0.895
  
  
  *********************
  Node Flooding Summary
  *********************
  
  Flooding refers to all water that overflows a node, whether it ponds or not.
  --------------------------------------------------------------------------
                                                             Total   Maximum
                                 Maximum   Time of Max       Flood    Ponded
                        Hours       Rate    Occurrence      Volume     Depth
  Node                 Flooded       LPS   days hr:min    10^6 ltr    Meters
  --------------------------------------------------------------------------
  XR-storage              0.84     84.38      0  04:20       0.164     0.000
  
  
  **********************
  Storage Volume Summary
  **********************
  
  --------------------------------------------------------------------------------------------------
                         Average     Avg  Evap Exfil       Maximum     Max    Time of Max    Maximum
                          Volume    Pcnt  Pcnt  Pcnt        Volume    Pcnt     Occurrence    Outflow
  Storage Unit           1000 m3    Full  Loss  Loss       1000 m3    Full    days hr:min        LPS
  --------------------------------------------------------------------------------------------------
  JK-storage               0.016       6     0     0         0.200      69       0  03:15     600.00
  CC-storage               0.907       6     0     0         1.642      10       0  06:56     400.00
  XR-storage               0.746      81     0     0         0.926     100       0  04:18     379.97
  
  
  ***********************
  Outfall Loading Summary
  ***********************
  
  -----------------------------------------------------------
                         Flow       Avg       Max       Total
                         Freq      Flow      Flow      Volume
  Outfall Node           Pcnt       LPS       LPS    10^6 ltr
  -----------------------------------------------------------
  WSC                  100.00    580.05    808.74      13.986
  3                     87.04    168.14    508.28       2.758
  4                     31.70     74.33    127.37       0.478
  5                      0.00      0.00      0.00       0.000
  -----------------------------------------------------------
  System                54.68    822.51   1358.27      17.222
  
  
  ********************
  Link Flow Summary
  ********************
  
  -----------------------------------------------------------------------------
                                 Maximum  Time of Max   Maximum    Max/    Max/
                                  |Flow|   Occurrence   |Veloc|    Full    Full
  Link                 Type          LPS  days hr:min     m/sec    Flow   Depth
  -----------------------------------------------------------------------------
  WS02003066WSF200     CONDUIT    500.43     0  02:39      2.72    0.08    0.22
  WS02006287WS02006284 CONDUIT    230.76     0  02:17      1.68    0.11    0.23
  WS02006284WS02006280 CONDUIT    230.87     0  02:17      1.93    0.10    0.21
  WS02006280WS02006229 CONDUIT    230.87     0  02:17      3.10    0.05    0.15
  WS02006229WS02006228 CONDUIT    500.01     0  02:30      0.99    1.66    1.00
  WS02006256WS02006235 CONDUIT    158.12     0  00:13      2.30    1.67    1.00
  WS02006253WS02006251 CONDUIT     45.43     0  02:16      0.51    0.14    0.93
  WS02006252WS02006251 CONDUIT    400.06     0  07:10      3.18    1.47    1.00
  WS02006251WS02006249 CONDUIT    421.46     0  02:50      1.17    1.22    0.90
  WS02006249WS02006248 CONDUIT    337.29     0  07:10      1.09    1.85    0.85
  WS02006248WS02006247 CONDUIT    333.24     0  07:10      1.05    0.73    0.89
  WS02006247WS02006245 CONDUIT    329.12     0  07:10      1.00    2.61    0.93
  WS02006245WS02006243 CONDUIT    329.00     0  04:01      1.02    0.97    0.95
  WS02006243WS02006242 CONDUIT    335.15     0  04:00      0.90    0.72    0.99
  WS02006242WS02006240 CONDUIT    338.97     0  04:00      0.90    1.35    1.00
  WS02006240WS02006239 CONDUIT    342.09     0  04:00      0.93    1.08    1.00
  WS02006239WS02006238 CONDUIT    343.43     0  04:00      0.90    1.10    1.00
  WS02006238WS02006235 CONDUIT    343.96     0  04:00      0.91    0.77    1.00
  WS02006235WS02006234 CONDUIT    388.09     0  03:30      1.01    4.09    1.00
  WS02006234WS02006232 CONDUIT    388.16     0  03:30      1.02    0.79    1.00
  WS02006232WS02006231 CONDUIT    388.18     0  03:30      1.05    0.81    0.95
  WS02006231WS02006230 CONDUIT    388.36     0  03:30      1.33    5.89    0.87
  WS02006230WS02006229 CONDUIT    399.04     0  03:30      1.04    8.88    1.00
  WS02006228WS02006109 CONDUIT    500.00     0  02:30      0.99    2.18    1.00
  WS02006116WS02004401 CONDUIT    503.52     0  02:33      0.74    0.69    0.81
  WS02006115WS02006116 CONDUIT    504.37     0  02:33      0.84    0.65    0.73
  WS02006113WS02006111 CONDUIT    516.32     0  02:33      2.40    0.62    0.44
  WS02006112WS02006115 CONDUIT    506.71     0  02:31      0.71    0.30    0.86
  WS02006111WS02006112 CONDUIT    504.28     0  02:31      1.42    0.24    0.67
  WS02006110WS02006113 CONDUIT    501.53     0  02:30      1.20    0.46    0.77
  WS02006109WS02006110 CONDUIT    501.24     0  02:30      1.00    0.96    0.99
  WS02004411WS02004412 CONDUIT    500.68     0  02:37      0.89    0.71    0.67
  WS02004401WS02004402 CONDUIT    503.02     0  02:33      0.77    0.60    0.84
  WS02004413WS02003067 CONDUIT    500.41     0  02:39      1.07    0.21    0.58
  WS02004412WS02004413 CONDUIT    500.45     0  02:38      0.78    0.34    0.76
  WS02004410WS02004411 CONDUIT    500.99     0  02:37      0.91    0.68    0.66
  WS02004409WS02004410 CONDUIT    501.67     0  02:36      0.94    0.65    0.65
  WS02004407WS02004409 CONDUIT    502.65     0  02:35      1.43    0.18    0.46
  WS02004406WS02004407 CONDUIT    502.74     0  02:35      1.00    0.22    0.61
  WS02004405WS02004406 CONDUIT    502.99     0  02:35      0.66    0.99    0.94
  WS02004404WS02004405 CONDUIT    502.82     0  02:35      0.85    4.93    0.94
  WS02004403WS02004404 CONDUIT    502.64     0  02:35      0.74    0.36    0.90
  WS02004402WS02004403 CONDUIT    502.77     0  02:34      0.75    0.72    0.86
  WS02004139WS02001211 CONDUIT    374.96     0  00:50      0.69    0.47    0.57
  WS02004138WS02004139 CONDUIT    379.47     0  00:50      2.95    0.08    0.43
  WS02003067WS02003066 CONDUIT    500.42     0  02:39      1.16    0.16    0.41
  WS02001213WS02003059 CONDUIT    376.93     0  00:52      0.68    0.62    0.73
  WS02001212WS02001213 CONDUIT    378.34     0  00:51      1.31    0.58    0.43
  WS02001211WS02001212 CONDUIT    378.91     0  00:51      0.77    0.29    0.62
  WS02003072WS02003073 CONDUIT    806.92     0  02:42      1.64    1.74    0.45
  WS02003069WS02003072 CONDUIT    806.91     0  02:41      1.54    0.39    0.47
  WS02003060WS02003069 CONDUIT    806.64     0  02:41      1.80    0.32    0.42
  WS02003059WS02003060 CONDUIT    375.05     0  00:53      0.93    0.24    0.61
  HS02004901HS02004770 CONDUIT     11.74     0  02:14      0.05    0.04    0.33
  HS02004876HS02004881 CONDUIT     39.36     0  02:16      0.61    0.42    0.09
  HS02004870HS02004876 CONDUIT     31.28     0  02:17      0.43    0.02    0.10
  HS02004842HS02004848 CONDUIT      5.80     0  02:28      0.03    0.00    0.28
  HS02004837HS02004842 CONDUIT      6.02     0  02:29      0.42    0.00    0.29
  HS02004830HS02004837 CONDUIT     25.66     0  02:16      0.46    0.03    0.08
  HS02004824HS02004830 CONDUIT     25.81     0  02:17      0.50    0.03    0.07
  HS02004817HS02004824 CONDUIT     41.89     0  02:19      0.17    0.02    0.41
  HS02004770HS02004777 CONDUIT     59.82     0  02:13      0.25    0.11    0.35
  HS02004799HS02004480 CONDUIT    147.14     0  02:15      0.63    0.19    0.33
  HS02004792HS02004799 CONDUIT    134.51     0  02:14      0.73    0.08    0.27
  HS02004788HS02004792 CONDUIT     78.26     0  02:15      0.87    0.05    0.13
  HS02004785HS02004788 CONDUIT     59.25     0  02:15      0.55    0.45    0.16
  HS02004777HS02004785 CONDUIT     59.20     0  02:14      0.30    0.07    0.28
  HS02004480HS02004478 CONDUIT    173.62     0  02:16      1.01    0.73    0.25
  HS02004479HS02004480 CONDUIT     27.19     0  02:17      0.15    0.03    0.32
  HS02004862HS02004870 CONDUIT     22.83     0  02:17      0.49    0.02    0.07
  HS02004848HS02004852 CONDUIT      9.33     0  02:16      0.33    0.01    0.04
  HS02004856HS02004862 CONDUIT     15.56     0  02:17      0.36    0.02    0.06
  HS02004852HS02004856 CONDUIT      9.28     0  02:18      0.14    0.01    0.10
  HS02004802HS02004478 CONDUIT     58.82     0  02:20      0.32    0.05    0.27
  HS02004478WS02006287 CONDUIT    230.70     0  02:17      1.38    0.06    0.19
  HS02004817HS02004807 CONDUIT     43.15     0  02:21      0.12    0.03    0.53
  HS02004807HS02004802 CONDUIT     58.34     0  02:19      0.27    0.11    0.32
  YS02001759YS02001757 CONDUIT    218.61     0  02:36      0.28    0.16    1.00
  YS02001762YS02001759 CONDUIT    138.83     0  03:28      0.18    0.16    1.00
  YS02001765YS02001762 CONDUIT    136.32     0  03:56      0.23    0.13    1.00
  YS02001770YS02001767 CONDUIT    152.72     0  03:26      0.35    0.60    1.00
  YS02001774YS02001770 CONDUIT     74.84     0  05:07      0.14    0.05    1.00
  YS02001779YS02001774 CONDUIT     72.81     0  05:07      0.10    0.04    0.96
  YS02001649YS02001757 CONDUIT    348.65     0  03:18      0.44    0.21    1.00
  YS02001767YS02001765 CONDUIT    123.51     0  02:36      0.26    0.16    1.00
  YS02006561YS02001783 CONDUIT    347.93     0  02:46      1.84    0.18    0.40
  YS02001783YS02001784 CONDUIT    347.86     0  02:47      1.28    0.48    0.53
  YS02001784YS02001785 CONDUIT    348.89     0  02:47      1.36    0.81    0.51
  YS02001788YS02001790 CONDUIT    348.98     0  02:48      1.93    0.26    0.39
  YS02001790YS02001791 CONDUIT    349.04     0  02:48      2.20    0.38    0.35
  YS02001791YS02001793 CONDUIT    349.05     0  02:48      4.53    0.15    0.21
  YS02001910YS02001907 CONDUIT    108.57     0  03:01      0.49    0.06    0.76
  YS02001786YS02001788 CONDUIT    348.89     0  02:47      1.80    0.67    0.41
  YS02001915YS02001910 CONDUIT    108.48     0  02:58      0.44    0.05    0.55
  YS02001918YS02001915 CONDUIT     36.36     0  03:03      0.44    0.02    0.27
  YS02001923YS02001920 CONDUIT     33.52     0  03:01      0.47    0.02    0.15
  YS02001926YS02001923 CONDUIT     33.49     0  03:01      0.51    0.05    0.14
  YS02001929YS02001926 CONDUIT     33.49     0  03:01      0.54    0.02    0.13
  YS02001920YS02001918 CONDUIT     36.38     0  03:02      0.48    0.04    0.15
  YS02001629YS02163301 CONDUIT    128.71     0  03:16      0.17    0.16    1.00
  YS02001619YS02001622 CONDUIT     95.01     0  03:56      0.69    0.14    0.69
  YS02001622YS02001625 CONDUIT    114.88     0  03:56      0.27    0.06    0.85
  YS02001625YS02001629 CONDUIT    121.80     0  03:55      0.27    0.06    0.83
  YS02163301YS02001633 CONDUIT    107.09     0  03:21      0.14    0.10    1.00
  YS02163601YS02164001 CONDUIT    164.11     0  03:54      0.21    0.15    1.00
  YS02164001YS02001641 CONDUIT    169.22     0  03:54      0.22    0.23    1.00
  YS02001641YS02001644 CONDUIT    166.58     0  03:17      0.21    0.54    1.00
  YS02001647YS02001649 CONDUIT    248.88     0  03:02      0.33    0.13    1.00
  YS02006553YS02006556 CONDUIT    237.13     0  02:58      0.34    0.20    0.84
  YS02006556YS02006558 CONDUIT    237.28     0  02:58      0.33    0.19    0.87
  YSB6556YSB1171       CONDUIT     14.70     0  02:18      0.06    0.02    0.59
  YS02001907YS02006553 CONDUIT    237.15     0  02:58      0.28    0.28    0.96
  YS02006558YS02006561 CONDUIT    355.31     0  02:50      2.41    0.79    0.52
  YS02001633YS02163601 CONDUIT    158.41     0  03:17      0.20    0.17    1.00
  YS02001644YS02001647 CONDUIT    242.26     0  03:17      0.32    0.14    1.00
  YS02001745YS02001748 CONDUIT     79.27     0  02:56      1.43    0.03    0.26
  YS02001748YS02001751 CONDUIT    197.29     0  03:58      1.12    0.10    0.62
  YS02001751YS02001754 CONDUIT    103.27     0  02:49      1.00    0.05    0.83
  YS02001754YS02001757 CONDUIT    182.32     0  03:58      0.33    0.07    1.00
  YS02001882YS02001884 CONDUIT      4.65     0  02:07      0.06    0.01    0.49
  YS02001884YS02001887 CONDUIT     13.25     0  02:07      0.07    0.02    0.58
  YS02001890YS02001895 CONDUIT    132.13     0  02:45      0.30    0.06    0.55
  YS02001895YS02001898 CONDUIT    132.22     0  02:46      0.51    0.23    0.41
  YS02001898YS02001901 CONDUIT    132.62     0  02:46      0.35    0.09    0.49
  YS02001901YS02001904 CONDUIT    132.12     0  02:46      0.30    0.20    0.54
  YS02001904YS02001907 CONDUIT    132.16     0  02:46      0.22    0.05    0.70
  YS02001887YS02001890 CONDUIT    132.35     0  02:41      0.25    0.23    0.64
  YS02001652YS02001649 CONDUIT    207.26     0  04:03      0.35    0.10    1.00
  YS02001655YS02001652 CONDUIT    124.80     0  03:01      1.07    0.06    0.87
  YS02001658YS02001655 CONDUIT    204.01     0  04:04      1.29    0.09    0.61
  YS02001661YS02001658 CONDUIT     94.01     0  02:41      1.49    0.04    0.30
  YS02001664YS02001661 CONDUIT     94.01     0  02:41      1.16    0.03    0.16
  YSB1154YSB6556       CONDUIT     14.37     0  02:15      0.19    0.03    0.48
  YSB1174YSB1171       CONDUIT     13.48     0  02:11      0.06    0.02    0.60
  YSB1171HS02004479    CONDUIT     26.95     0  02:17      0.54    0.02    0.46
  HS02004881HS02006253 CONDUIT     44.06     0  02:16      1.75    0.01    0.24
  YS02001793JiankangQianchi CONDUIT    349.05     0  02:48     13.08    0.03    0.56
  YS02001757CaochengTiaoxuchi CONDUIT    586.95     0  02:55      1.27    0.26    0.79
  WSF200WS02003060     CONDUIT    500.50     0  02:39      1.81    0.11    0.32
  1                    CONDUIT    808.74     0  02:43      3.14    0.28    0.36
  2                    CONDUIT    127.37     0  02:52      5.18    0.30    0.38
  3                    CONDUIT    508.28     0  03:20      9.84    0.81    0.69
  4                    CONDUIT      0.00     0  00:00      0.00    0.00    0.00
  CC-Pump-1            PUMP       200.00     0  02:40              1.00
  CC-Pump-2            PUMP       200.00     0  02:20              1.00
  JK-Pump-1            PUMP       300.00     0  03:20              1.00
  JK-Pump-2            PUMP       300.00     0  02:28              1.00
  XR-Pump-1            PUMP        95.00     0  00:50              1.00
  XR-Pump-2            PUMP        95.00     0  00:00              1.00
  XR-Pump-3            PUMP        95.00     0  00:00              1.00
  XR-Pump-4            PUMP        95.00     0  00:20              1.00
  
  
  ***************************
  Flow Classification Summary
  ***************************
  
  -------------------------------------------------------------------------------------
                      Adjusted    ---------- Fraction of Time in Flow Class ---------- 
                       /Actual         Up    Down  Sub   Sup   Up    Down  Norm  Inlet 
  Conduit               Length    Dry  Dry   Dry   Crit  Crit  Crit  Crit  Ltd   Ctrl  
  -------------------------------------------------------------------------------------
  WS02003066WSF200        1.00   0.05  0.01  0.00  0.00  0.94  0.00  0.00  0.68  0.00
  WS02006287WS02006284    1.00   0.04  0.02  0.00  0.66  0.28  0.00  0.00  0.77  0.00
  WS02006284WS02006280    1.00   0.05  0.00  0.00  0.00  0.00  0.00  0.95  0.00  0.00
  WS02006280WS02006229    1.00   0.05  0.00  0.00  0.00  0.00  0.00  0.95  0.00  0.00
  WS02006229WS02006228    1.00   0.00  0.00  0.00  1.00  0.00  0.00  0.00  0.00  0.00
  WS02006256WS02006235    1.00   0.00  0.00  0.00  0.99  0.00  0.00  0.00  0.00  0.00
  WS02006253WS02006251    1.00   0.03  0.01  0.00  0.96  0.00  0.00  0.00  0.00  0.00
  WS02006252WS02006251    1.00   0.09  0.00  0.00  0.00  0.00  0.91  0.00  0.00  0.00
  WS02006251WS02006249    1.00   0.00  0.00  0.00  1.00  0.00  0.00  0.00  0.33  0.00
  WS02006249WS02006248    1.00   0.00  0.00  0.00  0.85  0.00  0.15  0.00  0.00  0.00
  WS02006248WS02006247    1.00   0.00  0.00  0.00  0.97  0.00  0.00  0.02  0.24  0.00
  WS02006247WS02006245    1.00   0.00  0.00  0.00  0.97  0.00  0.00  0.03  0.00  0.00
  WS02006245WS02006243    1.00   0.01  0.00  0.00  0.94  0.00  0.00  0.05  0.05  0.00
  WS02006243WS02006242    1.00   0.01  0.00  0.00  0.99  0.00  0.00  0.00  0.24  0.00
  WS02006242WS02006240    1.00   0.01  0.00  0.00  0.99  0.00  0.00  0.00  0.00  0.00
  WS02006240WS02006239    1.00   0.01  0.00  0.00  0.95  0.00  0.00  0.04  0.01  0.00
  WS02006239WS02006238    1.00   0.00  0.00  0.00  1.00  0.00  0.00  0.00  0.01  0.00
  WS02006238WS02006235    1.00   0.00  0.00  0.00  1.00  0.00  0.00  0.00  0.00  0.00
  WS02006235WS02006234    1.00   0.00  0.00  0.00  0.95  0.00  0.04  0.00  0.00  0.00
  WS02006234WS02006232    1.00   0.00  0.00  0.00  0.99  0.00  0.00  0.00  0.09  0.00
  WS02006232WS02006231    1.00   0.00  0.00  0.00  0.99  0.00  0.00  0.00  0.00  0.00
  WS02006231WS02006230    1.00   0.01  0.00  0.00  0.54  0.00  0.46  0.00  0.00  0.00
  WS02006230WS02006229    1.00   0.00  0.00  0.00  0.99  0.00  0.00  0.01  0.00  0.00
  WS02006228WS02006109    1.00   0.00  0.00  0.00  1.00  0.00  0.00  0.00  0.00  0.00
  WS02006116WS02004401    1.00   0.03  0.00  0.00  0.97  0.00  0.00  0.00  0.00  0.00
  WS02006115WS02006116    1.00   0.03  0.00  0.00  0.97  0.00  0.00  0.01  0.00  0.00
  WS02006113WS02006111    1.00   0.02  0.00  0.00  0.00  0.98  0.00  0.00  0.13  0.00
  WS02006112WS02006115    1.00   0.02  0.01  0.00  0.97  0.00  0.00  0.00  0.00  0.00
  WS02006111WS02006112    1.00   0.02  0.00  0.00  0.97  0.00  0.00  0.00  0.96  0.00
  WS02006110WS02006113    1.00   0.00  0.02  0.00  0.98  0.00  0.00  0.00  0.00  0.00
  WS02006109WS02006110    1.00   0.00  0.00  0.00  1.00  0.00  0.00  0.00  0.00  0.00
  WS02004411WS02004412    1.00   0.04  0.00  0.00  0.96  0.00  0.00  0.00  0.00  0.00
  WS02004401WS02004402    1.00   0.03  0.00  0.00  0.97  0.00  0.00  0.00  0.00  0.00
  WS02004413WS02003067    1.00   0.04  0.01  0.00  0.00  0.00  0.94  0.00  0.00  0.00
  WS02004412WS02004413    1.00   0.04  0.00  0.00  0.96  0.00  0.00  0.00  0.03  0.00
  WS02004410WS02004411    1.00   0.04  0.00  0.00  0.96  0.00  0.00  0.00  0.03  0.00
  WS02004409WS02004410    1.00   0.04  0.00  0.00  0.96  0.00  0.00  0.00  0.04  0.00
  WS02004407WS02004409    1.00   0.04  0.00  0.00  0.96  0.00  0.00  0.00  0.87  0.00
  WS02004406WS02004407    1.00   0.00  0.04  0.00  0.96  0.00  0.00  0.00  0.00  0.00
  WS02004405WS02004406    1.00   0.00  0.00  0.00  1.00  0.00  0.00  0.00  0.03  0.00
  WS02004404WS02004405    1.00   0.00  0.00  0.00  1.00  0.00  0.00  0.00  0.00  0.00
  WS02004403WS02004404    1.00   0.00  0.03  0.00  0.97  0.00  0.00  0.00  0.01  0.00
  WS02004402WS02004403    1.00   0.03  0.00  0.00  0.97  0.00  0.00  0.00  0.00  0.00
  WS02004139WS02001211    1.00   0.00  0.00  0.00  1.00  0.00  0.00  0.00  0.00  0.00
  WS02004138WS02004139    1.00   0.00  0.00  0.00  1.00  0.00  0.00  0.00  1.00  0.00
  WS02003067WS02003066    1.00   0.06  0.00  0.00  0.94  0.00  0.00  0.00  0.00  0.00
  WS02001213WS02003059    1.00   0.00  0.00  0.00  1.00  0.00  0.00  0.00  0.00  0.00
  WS02001212WS02001213    1.00   0.00  0.00  0.00  0.79  0.00  0.21  0.00  0.00  0.00
  WS02001211WS02001212    1.00   0.00  0.00  0.00  1.00  0.00  0.00  0.00  0.00  0.00
  WS02003072WS02003073    1.00   0.00  0.00  0.00  0.00  0.00  0.00  1.00  0.00  0.00
  WS02003069WS02003072    1.00   0.00  0.00  0.00  1.00  0.00  0.00  0.00  0.26  0.00
  WS02003060WS02003069    1.00   0.00  0.00  0.00  1.00  0.00  0.00  0.00  0.11  0.00
  WS02003059WS02003060    1.00   0.00  0.00  0.00  1.00  0.00  0.00  0.00  0.01  0.00
  HS02004901HS02004770    1.00   0.04  0.00  0.00  0.96  0.00  0.00  0.00  0.03  0.00
  HS02004876HS02004881    1.00   0.00  0.00  0.00  1.00  0.00  0.00  0.00  0.00  0.00
  HS02004870HS02004876    1.00   0.00  0.00  0.00  0.99  0.01  0.00  0.00  0.95  0.00
  HS02004842HS02004848    1.00   0.00  0.05  0.00  0.95  0.00  0.00  0.00  0.69  0.00
  HS02004837HS02004842    1.00   0.00  0.00  0.00  1.00  0.00  0.00  0.00  0.11  0.00
  HS02004830HS02004837    1.00   0.00  0.00  0.00  1.00  0.00  0.00  0.00  0.99  0.00
  HS02004824HS02004830    1.00   0.00  0.00  0.00  1.00  0.00  0.00  0.00  0.00  0.00
  HS02004817HS02004824    1.00   0.00  0.00  0.00  1.00  0.00  0.00  0.00  1.00  0.00
  HS02004770HS02004777    1.00   0.00  0.04  0.00  0.96  0.00  0.00  0.00  0.07  0.00
  HS02004799HS02004480    1.00   0.00  0.02  0.00  0.94  0.00  0.04  0.00  0.00  0.00
  HS02004792HS02004799    1.00   0.00  0.00  0.00  1.00  0.00  0.00  0.00  0.98  0.00
  HS02004788HS02004792    1.00   0.00  0.00  0.00  1.00  0.00  0.00  0.00  0.98  0.00
  HS02004785HS02004788    1.00   0.00  0.00  0.00  1.00  0.00  0.00  0.00  0.00  0.00
  HS02004777HS02004785    1.00   0.00  0.00  0.00  1.00  0.00  0.00  0.00  0.21  0.00
  HS02004480HS02004478    1.00   0.05  0.00  0.00  0.72  0.00  0.00  0.23  0.00  0.00
  HS02004479HS02004480    1.00   0.02  0.00  0.00  0.98  0.00  0.00  0.00  0.16  0.00
  HS02004862HS02004870    1.00   0.00  0.00  0.00  1.00  0.00  0.00  0.00  0.05  0.00
  HS02004848HS02004852    1.00   0.05  0.00  0.00  0.95  0.00  0.00  0.00  0.71  0.00
  HS02004856HS02004862    1.00   0.00  0.07  0.00  0.93  0.00  0.00  0.00  0.74  0.00
  HS02004852HS02004856    1.00   0.04  0.01  0.00  0.95  0.00  0.00  0.00  0.83  0.00
  HS02004802HS02004478    1.00   0.05  0.01  0.00  0.95  0.00  0.00  0.00  0.01  0.00
  HS02004478WS02006287    1.00   0.05  0.00  0.00  0.86  0.09  0.00  0.00  0.76  0.00
  HS02004817HS02004807    1.00   0.00  0.04  0.00  0.96  0.00  0.00  0.00  0.00  0.00
  HS02004807HS02004802    1.00   0.04  0.00  0.00  0.95  0.00  0.00  0.00  0.01  0.00
  YS02001759YS02001757    1.00   0.00  0.00  0.00  1.00  0.00  0.00  0.00  0.17  0.00
  YS02001762YS02001759    1.00   0.00  0.00  0.00  1.00  0.00  0.00  0.00  0.05  0.00
  YS02001765YS02001762    1.00   0.00  0.00  0.00  1.00  0.00  0.00  0.00  0.22  0.00
  YS02001770YS02001767    1.00   0.00  0.00  0.00  1.00  0.00  0.00  0.00  0.00  0.00
  YS02001774YS02001770    1.00   0.00  0.05  0.00  0.95  0.00  0.00  0.00  0.06  0.00
  YS02001779YS02001774    1.00   0.00  0.00  0.00  1.00  0.00  0.00  0.00  0.26  0.00
  YS02001649YS02001757    1.00   0.00  0.00  0.00  1.00  0.00  0.00  0.00  0.19  0.00
  YS02001767YS02001765    1.00   0.00  0.00  0.00  1.00  0.00  0.00  0.00  0.01  0.00
  YS02006561YS02001783    1.00   0.07  0.00  0.00  0.00  0.93  0.00  0.00  0.73  0.00
  YS02001783YS02001784    1.00   0.00  0.07  0.00  0.93  0.00  0.00  0.00  0.00  0.00
  YS02001784YS02001785    1.00   0.00  0.00  0.00  1.00  0.00  0.00  0.00  0.25  0.00
  YS02001788YS02001790    1.00   0.00  0.00  0.00  0.07  0.93  0.00  0.00  0.76  0.00
  YS02001790YS02001791    1.00   0.00  0.00  0.00  0.00  1.00  0.00  0.00  0.56  0.00
  YS02001791YS02001793    1.00   0.00  0.00  0.00  0.00  1.00  0.00  0.00  0.00  0.00
  YS02001910YS02001907    1.00   0.00  0.00  0.00  0.99  0.00  0.00  0.01  0.13  0.00
  YS02001786YS02001788    1.00   0.00  0.00  0.00  0.08  0.92  0.00  0.00  0.00  0.00
  YS02001915YS02001910    1.00   0.00  0.00  0.00  1.00  0.00  0.00  0.00  0.24  0.00
  YS02001918YS02001915    1.00   0.00  0.00  0.00  1.00  0.00  0.00  0.00  0.81  0.00
  YS02001923YS02001920    1.00   0.00  0.00  0.00  1.00  0.00  0.00  0.00  1.00  0.00
  YS02001926YS02001923    1.00   0.00  0.03  0.00  0.00  0.00  0.97  0.00  0.00  0.00
  YS02001929YS02001926    1.00   0.00  0.04  0.00  0.96  0.00  0.00  0.00  0.87  0.00
  YS02001920YS02001918    1.00   0.00  0.00  0.00  1.00  0.00  0.00  0.00  0.00  0.00
  YS02001629YS02163301    1.00   0.06  0.00  0.00  0.93  0.00  0.00  0.00  0.00  0.00
  YS02001619YS02001622    1.00   0.04  0.00  0.00  0.96  0.00  0.00  0.00  0.00  0.00
  YS02001622YS02001625    1.00   0.04  0.00  0.00  0.96  0.00  0.00  0.00  0.13  0.00
  YS02001625YS02001629    1.00   0.05  0.03  0.00  0.91  0.00  0.02  0.00  0.00  0.00
  YS02163301YS02001633    1.00   0.00  0.06  0.00  0.94  0.00  0.00  0.00  0.00  0.00
  YS02163601YS02164001    1.00   0.00  0.03  0.00  0.97  0.00  0.00  0.00  0.00  0.00
  YS02164001YS02001641    1.00   0.00  0.03  0.00  0.97  0.00  0.00  0.00  0.07  0.00
  YS02001641YS02001644    1.00   0.00  0.00  0.00  1.00  0.00  0.00  0.00  0.00  0.00
  YS02001647YS02001649    1.00   0.00  0.07  0.00  0.93  0.00  0.00  0.00  0.01  0.00
  YS02006553YS02006556    1.00   0.00  0.00  0.00  1.00  0.00  0.00  0.00  0.03  0.00
  YS02006556YS02006558    1.00   0.00  0.00  0.00  1.00  0.00  0.00  0.00  0.00  0.00
  YSB6556YSB1171          1.00   0.02  0.02  0.00  0.96  0.00  0.00  0.00  0.00  0.00
  YS02001907YS02006553    1.00   0.00  0.00  0.00  1.00  0.00  0.00  0.00  0.00  0.00
  YS02006558YS02006561    1.00   0.07  0.00  0.00  0.00  0.93  0.00  0.00  0.69  0.00
  YS02001633YS02163601    1.00   0.00  0.00  0.00  1.00  0.00  0.00  0.00  0.20  0.00
  YS02001644YS02001647    1.00   0.00  0.07  0.00  0.93  0.00  0.00  0.00  0.00  0.00
  YS02001745YS02001748    1.00   0.00  0.00  0.00  0.86  0.02  0.00  0.13  0.64  0.00
  YS02001748YS02001751    1.00   0.00  0.00  0.00  0.97  0.03  0.00  0.00  0.24  0.00
  YS02001751YS02001754    1.00   0.00  0.00  0.00  0.92  0.00  0.00  0.07  0.02  0.00
  YS02001754YS02001757    1.00   0.00  0.00  0.00  1.00  0.00  0.00  0.00  0.26  0.00
  YS02001882YS02001884    1.00   0.06  0.00  0.00  0.94  0.00  0.00  0.00  0.00  0.00
  YS02001884YS02001887    1.00   0.03  0.01  0.00  0.96  0.00  0.00  0.00  0.00  0.00
  YS02001890YS02001895    1.00   0.00  0.06  0.00  0.94  0.00  0.00  0.00  0.00  0.00
  YS02001895YS02001898    1.00   0.06  0.00  0.00  0.93  0.00  0.01  0.00  0.00  0.00
  YS02001898YS02001901    1.00   0.06  0.00  0.00  0.93  0.00  0.00  0.00  0.02  0.00
  YS02001901YS02001904    1.00   0.06  0.00  0.00  0.94  0.00  0.00  0.00  0.00  0.00
  YS02001904YS02001907    1.00   0.00  0.06  0.00  0.94  0.00  0.00  0.00  0.00  0.00
  YS02001887YS02001890    1.00   0.00  0.00  0.00  0.99  0.00  0.01  0.00  0.00  0.00
  YS02001652YS02001649    1.00   0.00  0.00  0.00  1.00  0.00  0.00  0.00  0.26  0.00
  YS02001655YS02001652    1.00   0.00  0.00  0.00  0.92  0.00  0.00  0.07  0.02  0.00
  YS02001658YS02001655    1.00   0.00  0.06  0.00  0.91  0.03  0.00  0.00  0.10  0.00
  YS02001661YS02001658    1.00   0.06  0.00  0.00  0.86  0.09  0.00  0.00  0.56  0.00
  YS02001664YS02001661    1.00   0.04  0.00  0.00  0.72  0.24  0.00  0.00  0.86  0.00
  YSB1154YSB6556          1.00   0.04  0.00  0.00  0.96  0.00  0.00  0.00  0.02  0.00
  YSB1174YSB1171          1.00   0.03  0.01  0.00  0.96  0.00  0.00  0.00  0.00  0.00
  YSB1171HS02004479       1.00   0.02  0.00  0.00  0.97  0.00  0.00  0.01  0.13  0.00
  HS02004881HS02006253    1.00   0.03  0.00  0.00  0.74  0.01  0.00  0.23  0.52  0.00
  YS02001793JiankangQianchi    1.00   0.00  0.00  0.00  0.18  0.82  0.00  0.00  0.20  0.00
  YS02001757CaochengTiaoxuchi    1.00   0.00  0.09  0.00  0.91  0.00  0.00  0.00  0.00  0.00
  WSF200WS02003060        1.00   0.00  0.05  0.00  0.80  0.15  0.00  0.00  0.43  0.00
  1                       1.00   0.00  0.00  0.00  0.00  1.00  0.00  0.00  0.42  0.00
  2                       1.00   0.68  0.00  0.00  0.00  0.32  0.00  0.00  0.05  0.00
  3                       1.00   0.13  0.00  0.00  0.00  0.87  0.00  0.00  0.29  0.00
  4                       1.00   1.00  0.00  0.00  0.00  0.00  0.00  0.00  0.00  0.00
  
  
  *************************
  Conduit Surcharge Summary
  *************************
  
  ----------------------------------------------------------------------------
                                                           Hours        Hours 
                         --------- Hours Full --------   Above Full   Capacity
  Conduit                Both Ends  Upstream  Dnstream   Normal Flow   Limited
  ----------------------------------------------------------------------------
  WS02006229WS02006228        1.86      2.03      1.86      3.64         1.86
  WS02006256WS02006235        5.70      5.71      6.77      2.99         0.01
  WS02006252WS02006251        1.27      1.27      1.76      1.64         0.01
  WS02006251WS02006249        0.01      0.01      0.01      1.28         0.01
  WS02006249WS02006248        0.01      0.01      0.01      3.75         0.01
  WS02006247WS02006245        0.01      0.01      0.01      4.16         0.01
  WS02006243WS02006242        0.01      0.01      1.26      0.01         0.01
  WS02006242WS02006240        0.43      0.43      1.52      1.82         0.01
  WS02006240WS02006239        0.61      0.61      0.73      0.06         0.01
  WS02006239WS02006238        1.42      1.43      1.50      0.24         0.22
  WS02006238WS02006235        1.38      1.38      1.93      0.01         0.01
  WS02006235WS02006234        0.13      0.13      1.18      5.68         0.01
  WS02006234WS02006232        0.65      0.65      2.03      0.01         0.01
  WS02006232WS02006231        0.01      0.01      2.03      0.01         0.01
  WS02006231WS02006230        0.01      0.01      0.01      5.72         0.01
  WS02006230WS02006229        2.44      3.21      2.44      5.81         2.44
  WS02006228WS02006109        1.95      2.28      1.95      4.46         1.95
  WS02006112WS02006115        0.01      0.01      0.29      0.01         0.01
  WS02006111WS02006112        0.01      0.01      3.74      0.01         0.01
  WS02006110WS02006113        0.01      0.01      2.18      0.01         0.01
  WS02006109WS02006110        0.01      0.01      2.29      0.01         0.01
  WS02004404WS02004405        0.01      0.01      0.01      5.63         0.01
  WS02003072WS02003073        0.01      0.01      0.01      4.85         0.01
  YS02001759YS02001757        5.24      5.24      5.38      0.01         0.01
  YS02001762YS02001759        4.32      4.32      5.24      0.01         0.01
  YS02001765YS02001762        3.11      3.11      4.32      0.01         0.01
  YS02001770YS02001767        1.56      1.59      1.76      0.01         0.04
  YS02001774YS02001770        1.27      1.27      3.64      0.01         0.01
  YS02001779YS02001774        0.01      0.01      3.64      0.01         0.01
  YS02001649YS02001757        4.75      4.75      5.38      0.01         0.01
  YS02001767YS02001765        1.76      1.76      3.11      0.01         0.01
  YS02001629YS02163301        1.08      1.08      1.36      0.01         0.01
  YS02163301YS02001633        1.36      1.36      3.13      0.01         0.01
  YS02163601YS02164001        3.00      3.00      4.56      0.01         0.01
  YS02164001YS02001641        3.00      3.00      3.45      0.01         0.01
  YS02001641YS02001644        3.43      3.45      3.54      0.01         0.28
  YS02001647YS02001649        0.02      0.02      4.75      0.01         0.01
  YS02001633YS02163601        2.58      2.58      4.56      0.01         0.01
  YS02001644YS02001647        0.02      0.02      3.54      0.01         0.01
  YS02001754YS02001757        0.01      0.01      5.38      0.01         0.01
  YS02001652YS02001649        0.09      0.09      4.75      0.01         0.01
  YS02001793JiankangQianchi        0.01      0.01      0.81      0.01         0.01
  YS02001757CaochengTiaoxuchi        0.01      0.01      5.38      0.01         0.01
  
  
  ***************
  Pumping Summary
  ***************
  
  ---------------------------------------------------------------------------------------------------------
                                                  Min       Avg       Max     Total     Power    % Time Off
                        Percent   Number of      Flow      Flow      Flow    Volume     Usage    Pump Curve
  Pump                 Utilized   Start-Ups       LPS       LPS       LPS  10^6 ltr     Kw-hr    Low   High
  ---------------------------------------------------------------------------------------------------------
  CC-Pump-1               48.94           3      0.00    171.30    200.00     2.340      8.70    0.0   32.2
  CC-Pump-2               49.74           6      0.00    136.00    200.00     1.878      7.00    0.0   37.6
  JK-Pump-1               87.23           4      0.00    123.01    300.00     2.308     42.45    0.0    0.0
  JK-Pump-2               80.84           6      0.00    140.30    300.00     2.504     46.85    0.0    0.0
  XR-Pump-1               82.96           8      0.00     73.29     95.00     1.681     17.71    0.0    0.0
  XR-Pump-2               78.70          10      0.00     59.88     95.00     1.397     14.06    0.0    0.0
  XR-Pump-3               95.76           8      0.00     75.54     95.00     1.995     19.38    0.0    0.0
  XR-Pump-4               87.22           6      0.00     72.65     95.00     1.795     17.77    0.0    0.0
  

  Analysis begun on:  Tue Dec 21 13:56:50 2021
  Analysis ended on:  Tue Dec 21 13:56:53 2021
  Total elapsed time: 00:00:03