
  EPA STORM WATER MANAGEMENT MODEL - VERSION 5.1 (Build 5.3.0.dev0)
  --------------------------------------------------------------

  WARNING 04: minimum elevation drop used for Conduit WS02004404WS02004405
  WARNING 03: negative offset ignored for Link YS02001904YS02001907
  
  *********************************************************
  NOTE: The summary statistics displayed in this report are
  based on results found at every computational time step,  
  not just on results from each reporting time step.
  *********************************************************
  
  ****************
  Analysis Options
  ****************
  Flow Units ............... LPS
  Process Models:
    Rainfall/Runoff ........ YES
    RDII ................... NO
    Snowmelt ............... NO
    Groundwater ............ NO
    Flow Routing ........... YES
    Ponding Allowed ........ NO
    Water Quality .......... NO
  Infiltration Method ...... HORTON
  Flow Routing Method ...... DYNWAVE
  Surcharge Method ......... EXTRAN
  Starting Date ............ 08/28/2015 08:00:00
  Ending Date .............. 08/28/2015 15:50:00
  Antecedent Dry Days ...... 8.0
  Report Time Step ......... 00:01:00
  Wet Time Step ............ 00:01:00
  Dry Time Step ............ 00:01:00
  Routing Time Step ........ 5.00 sec
  Variable Time Step ....... YES
  Maximum Trials ........... 8
  Number of Threads ........ 4
  Head Tolerance ........... 0.001500 m
  
  
  **************************        Volume         Depth
  Runoff Quantity Continuity     hectare-m            mm
  **************************     ---------       -------
  Total Precipitation ......         1.477         3.234
  Evaporation Loss .........         0.000         0.000
  Infiltration Loss ........         0.359         0.785
  Surface Runoff ...........         0.385         0.844
  Final Storage ............         0.733         1.606
  Continuity Error (%) .....        -0.015
  
  
  **************************        Volume        Volume
  Flow Routing Continuity        hectare-m      10^6 ltr
  **************************     ---------     ---------
  Dry Weather Inflow .......         0.616         6.165
  Wet Weather Inflow .......         0.385         3.850
  Groundwater Inflow .......         0.000         0.000
  RDII Inflow ..............         0.000         0.000
  External Inflow ..........         0.102         1.024
  External Outflow .........         1.253        12.535
  Flooding Loss ............         0.000         0.001
  Evaporation Loss .........         0.000         0.000
  Exfiltration Loss ........         0.000         0.000
  Initial Stored Volume ....         0.076         0.761
  Final Stored Volume ......         0.119         1.193
  Continuity Error (%) .....       -16.356
  
  
  *************************
  Highest Continuity Errors
  *************************
  Node JK-storage (-60.79%)
  Node HS02004842 (45.25%)
  Node YS02001884 (38.29%)
  Node YS02001774 (21.96%)
  Node YSB1171 (14.79%)
  
  
  ***************************
  Time-Step Critical Elements
  ***************************
  Link WS02006252WS02006251 (83.76%)
  Link 3 (4.70%)
  Link WS02006280WS02006229 (3.43%)
  Link WS02006238WS02006235 (3.25%)
  
  
  ********************************
  Highest Flow Instability Indexes
  ********************************
  Link WS02006113WS02006111 (53)
  Link WS02006111WS02006112 (19)
  Link YS02001754YS02001757 (3)
  Link YS02001767YS02001765 (2)
  Link YS02001751YS02001754 (2)
  
  
  *************************
  Routing Time Step Summary
  *************************
  Minimum Time Step           :     0.41 sec
  Average Time Step           :     1.08 sec
  Maximum Time Step           :     5.00 sec
  Percent in Steady State     :     0.00
  Average Iterations per Step :     2.02
  Percent Not Converging      :     0.06
  
  
  ***************************
  Subcatchment Runoff Summary
  ***************************
  
  ------------------------------------------------------------------------------------------------------------------------------
                            Total      Total      Total      Total     Imperv       Perv      Total       Total     Peak  Runoff
                           Precip      Runon       Evap      Infil     Runoff     Runoff     Runoff      Runoff   Runoff   Coeff
  Subcatchment                 mm         mm         mm         mm         mm         mm         mm    10^6 ltr      LPS
  ------------------------------------------------------------------------------------------------------------------------------
  sub0                       3.23       0.00       0.00       0.23       1.74       0.00       1.74        0.00     0.46   0.539
  sub1                       3.23       0.00       0.00       0.36       1.63       0.00       1.63        0.01     2.33   0.503
  sub2                       3.23       0.00       0.00       1.20       1.14       0.00       1.14        0.01     2.05   0.351
  sub3                       3.23       0.00       0.00       1.20       1.11       0.00       1.11        0.02     4.18   0.343
  sub4                       3.23       0.00       0.00       0.36       1.51       0.00       1.51        0.03     4.64   0.468
  sub5                       3.23       0.00       0.00       0.23       1.70       0.00       1.70        0.02     4.15   0.526
  sub7                       3.23       0.00       0.00       0.29       1.69       0.00       1.69        0.01     1.48   0.522
  sub8                       3.23       0.00       0.00       0.29       1.68       0.00       1.68        0.01     2.60   0.520
  sub9                       3.23       0.00       0.00       0.29       1.68       0.00       1.68        0.01     1.93   0.519
  sub10                      3.23       0.00       0.00       0.26       1.69       0.00       1.69        0.02     4.15   0.522
  sub11                      3.23       0.00       0.00       0.26       1.70       0.00       1.70        0.02     4.90   0.526
  sub12                      3.23       0.00       0.00       0.42       1.63       0.00       1.63        0.01     4.19   0.503
  sub14                      3.23       0.00       0.00       0.29       1.68       0.00       1.68        0.02     3.76   0.519
  sub15                      3.23       0.00       0.00       0.97       1.29       0.00       1.29        0.02     5.10   0.398
  sub16                      3.23       0.00       0.00       1.07       1.25       0.00       1.25        0.01     3.67   0.386
  sub17                      3.23       0.00       0.00       1.04       1.27       0.00       1.27        0.01     2.96   0.391
  sub22                      3.23       0.00       0.00       1.39       1.06       0.00       1.06        0.07    16.77   0.327
  sub23                      3.23       0.00       0.00       1.20       1.17       0.00       1.17        0.06    14.30   0.361
  sub60                      3.23       0.00       0.00       0.39       0.90       0.00       0.90        0.27    21.51   0.278
  sub61                      3.23       0.00       0.00       0.55       1.02       0.00       1.02        0.31    27.93   0.315
  sub62                      3.23       0.00       0.00       0.26       1.07       0.00       1.07        0.33    28.31   0.332
  sub63                      3.23       0.00       0.00       0.94       0.93       0.00       0.93        0.28    26.28   0.287
  sub64                      3.23       0.00       0.00       0.49       0.86       0.00       0.86        0.26    20.37   0.265
  sub65                      3.23       0.00       0.00       0.42       0.86       0.00       0.86        0.27    20.60   0.267
  sub66                      3.23       0.00       0.00       0.94       0.76       0.00       0.76        0.23    18.91   0.235
  sub67                      3.23       0.00       0.00       0.26       1.24       0.00       1.24        0.38    37.12   0.384
  sub68                      3.23       0.00       0.00       0.45       1.10       0.00       1.10        0.34    31.04   0.340
  sub69                      3.23       0.00       0.00       0.49       1.25       0.00       1.25        0.29    31.50   0.387
  sub70                      3.23       1.28       0.00       1.53       1.34       0.00       1.34        0.31    21.51   0.297
  sub71                      3.23       0.00       0.00       0.26       1.01       0.00       1.01        0.24    19.52   0.311
  sub72                      3.23       0.00       0.00       0.23       0.64       0.00       0.64        0.13     8.58   0.196
  sub73                      3.23       1.30       0.00       1.54       1.25       0.00       1.25        0.29    18.46   0.276
  sub74                      3.23       0.00       0.00       2.43       0.38       0.00       0.38        0.15    17.72   0.119
  
  
  ******************
  Node Depth Summary
  ******************
  
  ---------------------------------------------------------------------------------
                                 Average  Maximum  Maximum  Time of Max    Reported
                                   Depth    Depth      HGL   Occurrence   Max Depth
  Node                 Type       Meters   Meters   Meters  days hr:min      Meters
  ---------------------------------------------------------------------------------
  WS02001211           JUNCTION     0.65     0.75     5.59     0  02:51        0.75
  WS02001212           JUNCTION     0.37     0.45     5.52     0  02:51        0.45
  WS02001213           JUNCTION     0.59     0.68     5.44     0  02:52        0.68
  WS02003069           JUNCTION     0.40     0.50     5.09     0  03:22        0.50
  WS02003072           JUNCTION     0.46     0.57     4.94     0  03:22        0.57
  WS02003073           JUNCTION     0.28     0.34     4.41     0  03:23        0.34
  WS02003060           JUNCTION     0.35     0.44     5.38     0  03:21        0.44
  WS02003066           JUNCTION     0.20     0.27     5.82     0  03:22        0.27
  WS02003059           JUNCTION     0.65     0.73     5.42     0  03:21        0.73
  WS02003067           JUNCTION     0.51     0.65     5.97     0  03:22        0.65
  WS02004401           JUNCTION     0.59     0.76     6.76     0  03:18        0.76
  WS02004402           JUNCTION     0.63     0.79     6.75     0  03:18        0.79
  WS02004403           JUNCTION     0.65     0.81     6.74     0  03:18        0.81
  WS02004404           JUNCTION     0.73     0.88     6.73     0  03:18        0.88
  WS02004406           JUNCTION     0.74     0.89     6.72     0  03:18        0.89
  WS02004409           JUNCTION     0.41     0.58     6.35     0  03:20        0.58
  WS02004410           JUNCTION     0.43     0.60     6.32     0  03:21        0.60
  WS02004411           JUNCTION     0.45     0.61     6.29     0  03:21        0.61
  WS02004412           JUNCTION     0.47     0.63     6.27     0  03:21        0.63
  WS02004413           JUNCTION     0.63     0.79     6.26     0  03:21        0.79
  WS02004405           JUNCTION     0.72     0.88     6.73     0  03:18        0.88
  WS02006109           JUNCTION     0.66     0.84     7.46     0  03:09        0.84
  WS02006110           JUNCTION     0.67     0.83     7.41     0  03:09        0.83
  WS02006111           JUNCTION     0.19     0.25     6.96     0  03:10        0.25
  WS02006112           JUNCTION     0.75     0.94     6.82     0  03:17        0.94
  WS02006113           JUNCTION     0.28     0.40     7.29     0  03:09        0.39
  WS02006115           JUNCTION     0.48     0.65     6.79     0  03:17        0.65
  WS02006116           JUNCTION     0.56     0.73     6.77     0  03:18        0.73
  WS02006230           JUNCTION     0.60     0.85     7.60     0  03:15        0.85
  WS02006231           JUNCTION     0.40     0.58     7.70     0  03:16        0.58
  WS02006232           JUNCTION     0.53     0.73     7.76     0  03:16        0.73
  WS02006234           JUNCTION     0.44     0.66     7.82     0  03:16        0.66
  WS02006235           JUNCTION     0.47     0.70     7.86     0  03:16        0.70
  WS02006238           JUNCTION     0.50     0.73     7.87     0  03:16        0.73
  WS02006240           JUNCTION     0.38     0.65     7.94     0  03:16        0.65
  WS02006242           JUNCTION     0.44     0.72     7.98     0  03:16        0.71
  WS02006243           JUNCTION     0.32     0.60     8.02     0  03:16        0.60
  WS02006245           JUNCTION     0.31     0.57     8.06     0  03:17        0.57
  WS02006247           JUNCTION     0.34     0.59     8.09     0  03:15        0.59
  WS02006248           JUNCTION     0.29     0.53     8.11     0  03:16        0.52
  WS02006249           JUNCTION     0.33     0.55     8.15     0  03:15        0.55
  WS02006239           JUNCTION     0.44     0.70     7.91     0  03:16        0.70
  WS02006251           JUNCTION     0.31     0.54     8.21     0  03:15        0.54
  WS02006252           JUNCTION     0.29     0.51     8.75     0  04:17        0.50
  WS02006253           JUNCTION     0.34     0.57     8.21     0  03:15        0.57
  WS02006256           JUNCTION     0.88     2.35     9.28     0  00:00        1.19
  WS02004138           JUNCTION     0.15     0.19     7.44     0  00:50        0.19
  WS02004407           JUNCTION     0.19     0.26     6.57     0  03:19        0.26
  WS02006228           JUNCTION     0.65     0.85     7.50     0  03:09        0.85
  WS02006229           JUNCTION     0.62     0.83     7.53     0  03:09        0.83
  WS02006280           JUNCTION     0.04     0.09     8.36     0  02:31        0.09
  WS02006284           JUNCTION     0.33     0.40     8.80     0  02:31        0.40
  WS02006287           JUNCTION     0.06     0.12     9.08     0  02:31        0.12
  WSF200               JUNCTION     0.18     0.27     5.50     0  03:28        0.27
  HS02004901           JUNCTION     0.10     0.16     9.98     0  02:30        0.16
  HS02004881           JUNCTION     0.00     0.01     9.04     0  02:30        0.01
  HS02004876           JUNCTION     0.03     0.07     9.10     0  02:30        0.07
  HS02004870           JUNCTION     0.01     0.02     9.31     0  02:29        0.02
  HS02004862           JUNCTION     0.01     0.02     9.41     0  02:30        0.02
  HS02004856           JUNCTION     0.07     0.09     9.51     0  02:29        0.09
  HS02004852           JUNCTION     0.00     0.01     9.52     0  02:31        0.01
  HS02004848           JUNCTION     0.00     0.01     9.61     0  02:26        0.01
  HS02004842           JUNCTION     0.32     0.34     9.61     0  02:25        0.34
  HS02004837           JUNCTION     0.02     0.03     9.61     0  02:26        0.03
  HS02004830           JUNCTION     0.03     0.04     9.51     0  02:26        0.04
  HS02004824           JUNCTION     0.02     0.02     9.43     0  02:30        0.02
  HS02004817           JUNCTION     0.41     0.46     9.31     0  02:31        0.46
  HS02004807           JUNCTION     0.10     0.14     9.31     0  02:31        0.14
  HS02004802           JUNCTION     0.14     0.18     9.31     0  02:31        0.18
  HS02004799           JUNCTION     0.08     0.16     9.37     0  02:29        0.16
  HS02004792           JUNCTION     0.02     0.05     9.57     0  02:28        0.05
  HS02004788           JUNCTION     0.01     0.04     9.93     0  02:30        0.04
  HS02004785           JUNCTION     0.02     0.07     9.97     0  02:30        0.07
  HS02004777           JUNCTION     0.12     0.18     9.98     0  02:30        0.18
  HS02004770           JUNCTION     0.09     0.15     9.98     0  02:29        0.15
  HS02004480           JUNCTION     0.05     0.11     9.35     0  02:29        0.11
  HS02004479           JUNCTION     0.08     0.15     9.35     0  02:29        0.15
  HS02004478           JUNCTION     0.04     0.07     9.30     0  02:30        0.07
  YS02001745           JUNCTION     0.05     0.06     7.58     0  03:01        0.06
  YS02001748           JUNCTION     0.05     0.07     7.15     0  03:01        0.07
  YS02001751           JUNCTION     0.15     0.21     7.09     0  03:12        0.21
  YS02001754           JUNCTION     0.39     0.49     7.10     0  03:40        0.49
  YS02001762           JUNCTION     0.59     0.69     7.09     0  03:06        0.69
  YS02001765           JUNCTION     0.54     0.64     7.09     0  03:15        0.64
  YS02001767           JUNCTION     0.50     0.60     7.09     0  03:15        0.60
  YS02001770           JUNCTION     0.50     0.59     7.09     0  03:05        0.59
  YS02001774           JUNCTION     0.57     0.67     7.09     0  03:05        0.67
  YS02001779           JUNCTION     0.32     0.41     7.09     0  03:05        0.40
  YS02001882           JUNCTION     0.19     0.26     6.97     0  03:01        0.26
  YS02001884           JUNCTION     0.28     0.36     6.97     0  03:02        0.36
  YS02001759           JUNCTION     0.62     0.72     7.09     0  03:09        0.72
  YS02001887           JUNCTION     0.36     0.44     6.97     0  03:02        0.44
  YS02001890           JUNCTION     0.39     0.47     6.97     0  03:01        0.47
  YS02001898           JUNCTION     0.16     0.22     6.96     0  03:02        0.22
  YS02001901           JUNCTION     0.28     0.35     6.96     0  03:02        0.35
  YS02001904           JUNCTION     0.26     0.33     6.96     0  03:02        0.33
  YS02001907           JUNCTION     0.59     0.67     6.96     0  03:02        0.67
  YS02001910           JUNCTION     0.38     0.45     6.96     0  03:03        0.45
  YS02001915           JUNCTION     0.18     0.24     6.96     0  03:02        0.24
  YS02001918           JUNCTION     0.05     0.06     7.12     0  03:06        0.06
  YS02001619           JUNCTION     0.11     0.17     7.10     0  03:10        0.17
  YS02001629           JUNCTION     0.45     0.54     7.09     0  03:11        0.54
  YS02001641           JUNCTION     0.55     0.65     7.09     0  03:08        0.65
  YS02001644           JUNCTION     0.56     0.66     7.09     0  03:13        0.66
  YS02001652           JUNCTION     0.41     0.49     7.09     0  03:13        0.49
  YS02001655           JUNCTION     0.18     0.24     7.09     0  03:13        0.24
  YS02001920           JUNCTION     0.13     0.14     7.15     0  03:05        0.14
  YS02001923           JUNCTION     0.04     0.04     7.30     0  03:03        0.04
  YS02001926           JUNCTION     0.09     0.11     7.55     0  03:03        0.11
  YS02001929           JUNCTION     0.04     0.05     7.74     0  03:01        0.05
  YS02001658           JUNCTION     0.05     0.07     7.22     0  02:58        0.07
  YS02001661           JUNCTION     0.11     0.14     7.55     0  02:58        0.14
  YS02001664           JUNCTION     0.04     0.06     7.99     0  02:58        0.06
  YS02001622           JUNCTION     0.13     0.19     7.09     0  03:10        0.19
  YS02001633           JUNCTION     0.54     0.64     7.09     0  03:12        0.63
  YS02001649           JUNCTION     0.60     0.70     7.09     0  03:13        0.70
  YS02001757           JUNCTION     0.72     0.83     7.09     0  03:14        0.83
  YS02001895           JUNCTION     0.16     0.22     6.97     0  03:02        0.22
  YS02001625           JUNCTION     0.41     0.49     7.09     0  03:09        0.49
  YS02163301           JUNCTION     0.48     0.57     7.09     0  03:12        0.57
  YS02163601           JUNCTION     0.59     0.69     7.09     0  03:12        0.69
  YS02164001           JUNCTION     0.53     0.63     7.09     0  03:08        0.63
  YS02001647           JUNCTION     0.39     0.48     7.09     0  03:07        0.48
  YSB1154              JUNCTION     0.22     0.30     9.36     0  02:29        0.30
  YSB6556              JUNCTION     0.12     0.19     9.35     0  02:30        0.19
  YSB1174              JUNCTION     0.17     0.25     9.35     0  02:29        0.25
  YSB1171              JUNCTION     0.37     0.45     9.35     0  02:29        0.45
  YS02006553           JUNCTION     0.59     0.67     6.96     0  03:02        0.67
  YS02006561           JUNCTION     0.09     0.12     6.78     0  03:02        0.12
  YS02006556           JUNCTION     0.56     0.65     6.96     0  03:02        0.65
  YS02006558           JUNCTION     0.61     0.69     6.96     0  03:02        0.69
  YS02001783           JUNCTION     0.14     0.21     6.35     0  03:03        0.21
  YS02001784           JUNCTION     0.18     0.24     6.31     0  03:03        0.24
  YS02001786           JUNCTION     0.15     0.21     6.24     0  03:04        0.21
  YS02001788           JUNCTION     0.11     0.15     6.12     0  03:04        0.15
  YS02001790           JUNCTION     0.13     0.18     5.82     0  03:04        0.18
  YS02001791           JUNCTION     0.09     0.12     5.59     0  03:04        0.12
  YS02001793           JUNCTION     0.06     0.08     4.91     0  03:04        0.08
  WS02004139           JUNCTION     0.59     0.70     5.61     0  02:51        0.70
  WSC                  OUTFALL      0.28     0.34     1.01     0  03:23        0.34
  3                    OUTFALL      0.02     0.23     6.23     0  00:00        0.19
  4                    OUTFALL      0.00     0.05     7.05     0  03:15        0.05
  5                    OUTFALL      0.00     0.00     5.00     0  00:00        0.00
  JK-storage           STORAGE      0.03     3.00     3.80     0  00:00        2.39
  CC-storage           STORAGE      0.00     0.02     7.02     0  03:36        0.02
  XR-storage           STORAGE      0.76     5.00     3.00     0  00:00        4.96
  
  
  *******************
  Node Inflow Summary
  *******************
  
  -------------------------------------------------------------------------------------------------
                                  Maximum  Maximum                  Lateral       Total        Flow
                                  Lateral    Total  Time of Max      Inflow      Inflow     Balance
                                   Inflow   Inflow   Occurrence      Volume      Volume       Error
  Node                 Type           LPS      LPS  days hr:min    10^6 ltr    10^6 ltr     Percent
  -------------------------------------------------------------------------------------------------
  WS02001211           JUNCTION      7.35   381.15     0  02:50       0.207        6.93       0.419
  WS02001212           JUNCTION      0.00   376.52     0  02:51           0        6.91       0.286
  WS02001213           JUNCTION      0.00   374.42     0  02:51           0        6.89       0.234
  WS02003069           JUNCTION      0.32   725.91     0  03:22     0.00902        12.1       0.174
  WS02003072           JUNCTION      0.00   725.80     0  03:22           0        12.1       0.233
  WS02003073           JUNCTION      1.82   727.53     0  03:23      0.0514        12.1       0.254
  WS02003060           JUNCTION     16.53   725.65     0  03:21       0.466        12.1       0.168
  WS02003066           JUNCTION      0.00   418.06     0  03:22           0        4.81       0.065
  WS02003059           JUNCTION      0.00   372.19     0  02:52           0        6.87       0.446
  WS02003067           JUNCTION      0.00   418.06     0  03:21           0        4.82       0.146
  WS02004401           JUNCTION      0.00   418.63     0  03:17           0        4.99       0.313
  WS02004402           JUNCTION      0.00   418.55     0  03:17           0        4.97       0.306
  WS02004403           JUNCTION      0.00   418.51     0  03:18           0        4.96       0.286
  WS02004404           JUNCTION      0.16   418.65     0  03:18     0.00457        4.95       0.224
  WS02004406           JUNCTION      0.00   418.66     0  03:18           0        4.92       0.553
  WS02004409           JUNCTION      0.00   418.64     0  03:19           0        4.89       0.202
  WS02004410           JUNCTION      0.00   418.43     0  03:19           0        4.88       0.244
  WS02004411           JUNCTION      0.00   418.26     0  03:20           0        4.87       0.264
  WS02004412           JUNCTION      0.00   418.16     0  03:21           0        4.86       0.303
  WS02004413           JUNCTION      0.00   418.09     0  03:21           0        4.84       0.474
  WS02004405           JUNCTION      0.04   418.67     0  03:18     0.00107        4.94       0.342
  WS02006109           JUNCTION      1.23   418.69     0  03:09      0.0347        5.06       0.324
  WS02006110           JUNCTION      0.00   418.70     0  03:09           0        5.05       0.266
  WS02006111           JUNCTION      0.00   428.65     0  03:10           0        5.03       0.045
  WS02006112           JUNCTION      2.96   420.46     0  03:10      0.0109        5.04       0.424
  WS02006113           JUNCTION      0.00   418.73     0  03:09           0        5.03       0.099
  WS02006115           JUNCTION      0.00   419.04     0  03:15           0        5.01       0.257
  WS02006116           JUNCTION      0.00   418.78     0  03:16           0           5       0.262
  WS02006230           JUNCTION     10.28   379.34     0  03:17        0.29        4.56       0.169
  WS02006231           JUNCTION      0.00   369.01     0  03:17           0        4.28       0.162
  WS02006232           JUNCTION      0.00   368.96     0  03:17           0        4.29       0.243
  WS02006234           JUNCTION      0.00   369.05     0  03:17           0        4.29       0.050
  WS02006235           JUNCTION      0.00   369.05     0  03:16           0        4.33       0.156
  WS02006238           JUNCTION      0.00   295.22     0  03:20           0        2.71       0.127
  WS02006240           JUNCTION      0.00   294.09     0  03:20           0        2.69       0.144
  WS02006242           JUNCTION      0.00   293.09     0  03:11           0        2.69       0.209
  WS02006243           JUNCTION      0.00   293.00     0  03:11           0        2.67      -0.194
  WS02006245           JUNCTION      0.00   293.10     0  03:07           0        2.68       0.258
  WS02006247           JUNCTION      0.00   294.95     0  03:07           0        2.68       0.111
  WS02006248           JUNCTION      0.00   297.00     0  03:04           0        2.68      -0.033
  WS02006249           JUNCTION      0.00   317.09     0  03:15           0        2.71       0.259
  WS02006239           JUNCTION      0.00   294.33     0  03:20           0         2.7       0.163
  WS02006251           JUNCTION      0.08   320.36     0  03:15     0.00217        2.75       0.100
  WS02006252           JUNCTION      0.00   317.35     0  04:17           0        2.65       0.007
  WS02006253           JUNCTION      0.46    27.97     0  07:11     0.00141      0.0998       1.167
  WS02006256           JUNCTION      0.00   600.00     0  00:00           0        2.08       0.069
  WS02004138           JUNCTION      0.00   379.94     0  02:50           0        6.76       0.065
  WS02004407           JUNCTION      0.00   418.65     0  03:19           0        4.89       0.090
  WS02006228           JUNCTION      0.00   417.46     0  03:09           0        5.04       0.208
  WS02006229           JUNCTION      0.00   417.49     0  03:09           0        5.05       0.150
  WS02006280           JUNCTION      0.00    71.82     0  02:31           0       0.489       0.015
  WS02006284           JUNCTION      0.10    71.83     0  02:31      0.0027        0.49       0.245
  WS02006287           JUNCTION      0.00    71.75     0  02:30           0       0.488       0.142
  WSF200               JUNCTION      0.00   418.06     0  03:22           0        4.81       0.057
  HS02004901           JUNCTION      3.67     3.67     0  02:18      0.0131      0.0132      15.321
  HS02004881           JUNCTION      1.48    11.89     0  02:29     0.00569      0.0585       0.237
  HS02004876           JUNCTION      2.33    10.63     0  02:28      0.0108      0.0533       0.963
  HS02004870           JUNCTION      2.60     8.36     0  02:28      0.0107      0.0426       0.245
  HS02004862           JUNCTION      2.25     5.94     0  02:28      0.0162      0.0321       0.512
  HS02004856           JUNCTION      1.93     3.72     0  02:28     0.00807      0.0173       9.064
  HS02004852           JUNCTION      0.00     1.93     0  02:29           0     0.00924       0.483
  HS02004848           JUNCTION      4.18     4.18     0  02:29      0.0249      0.0249       0.159
  HS02004842           JUNCTION      0.00     4.47     0  00:03           0      0.0287      82.636
  HS02004837           JUNCTION     10.50    12.70     0  02:24       0.198       0.213       0.383
  HS02004830           JUNCTION      0.15    12.85     0  02:26     0.00423       0.204       0.607
  HS02004824           JUNCTION      4.69    17.49     0  02:29       0.033       0.235       0.228
  HS02004817           JUNCTION      0.60    18.09     0  02:30      0.0169       0.252       7.079
  HS02004807           JUNCTION      4.90    22.53     0  02:29      0.0198       0.255       1.683
  HS02004802           JUNCTION      0.00    22.51     0  02:31           0       0.251       1.647
  HS02004799           JUNCTION      3.76    41.97     0  02:27       0.016       0.222       1.010
  HS02004792           JUNCTION     17.05    38.38     0  02:27      0.0746       0.207       0.202
  HS02004788           JUNCTION      6.77    22.61     0  02:29      0.0692       0.133       0.291
  HS02004785           JUNCTION      0.15    16.22     0  02:28     0.00423      0.0663       0.716
  HS02004777           JUNCTION      0.03    16.43     0  02:24    0.000846      0.0664       8.426
  HS02004770           JUNCTION     14.30    17.26     0  02:21      0.0557      0.0672       4.835
  HS02004480           JUNCTION      0.00    49.34     0  02:29           0       0.253       0.252
  HS02004479           JUNCTION      0.00     7.48     0  02:31           0      0.0433       1.708
  HS02004478           JUNCTION      0.00    71.75     0  02:30           0       0.489       0.142
  YS02001745           JUNCTION     21.52    21.52     0  03:01       0.273       0.273       0.095
  YS02001748           JUNCTION      0.04    21.55     0  03:01     0.00127       0.274       0.048
  YS02001751           JUNCTION      0.01    40.41     0  04:44     0.00031       0.349       0.451
  YS02001754           JUNCTION      0.26   139.77     0  04:43     0.00733       0.658       1.477
  YS02001762           JUNCTION      0.00    35.28     0  03:06           0       0.371       3.705
  YS02001765           JUNCTION      0.00    51.47     0  04:25           0       0.361       4.001
  YS02001767           JUNCTION      0.54    45.53     0  04:47      0.0151       0.366       5.341
  YS02001770           JUNCTION     28.46    33.45     0  02:48       0.334       0.348       4.732
  YS02001774           JUNCTION      0.00    17.03     0  02:40           0      0.0647      28.143
  YS02001779           JUNCTION      0.01     8.64     0  04:48    0.000141      0.0366      15.400
  YS02001882           JUNCTION      0.00     1.53     0  02:12           0     0.00247     101.404
  YS02001884           JUNCTION      0.00     4.93     0  02:10           0      0.0102      62.055
  YS02001759           JUNCTION     27.97    68.89     0  04:26       0.315        0.66       2.396
  YS02001887           JUNCTION     37.57    37.57     0  02:55       0.396         0.4       1.557
  YS02001890           JUNCTION      0.00    37.40     0  02:58           0       0.385       1.795
  YS02001898           JUNCTION      0.00    37.24     0  03:01           0       0.375       0.410
  YS02001901           JUNCTION      0.00    37.33     0  03:02           0       0.375       1.219
  YS02001904           JUNCTION      0.00    37.23     0  03:03           0       0.375       1.141
  YS02001907           JUNCTION      0.00    68.00     0  03:03           0       0.809       2.592
  YS02001910           JUNCTION      0.00    31.04     0  03:01           0       0.444       2.048
  YS02001915           JUNCTION     19.54    30.89     0  03:01       0.238       0.447       0.759
  YS02001918           JUNCTION      0.00    11.49     0  03:04           0        0.21       0.307
  YS02001619           JUNCTION     18.91    18.91     0  03:01       0.233       0.233       0.191
  YS02001629           JUNCTION      0.00    21.84     0  02:54           0       0.219       2.479
  YS02001641           JUNCTION      0.00    45.49     0  03:13           0       0.454       2.766
  YS02001644           JUNCTION     20.41    62.68     0  03:03       0.261       0.697       2.176
  YS02001652           JUNCTION      0.00    40.51     0  04:48           0       0.319       2.749
  YS02001655           JUNCTION      0.15    26.43     0  02:58     0.00434       0.286       0.994
  YS02001920           JUNCTION      2.87    11.50     0  03:03      0.0809       0.211       0.700
  YS02001923           JUNCTION      0.04     8.63     0  03:03     0.00106        0.13       0.128
  YS02001926           JUNCTION      0.05     8.63     0  03:01     0.00147       0.131       0.954
  YS02001929           JUNCTION      8.58     8.58     0  03:01       0.129       0.129       0.118
  YS02001658           JUNCTION      0.00    26.28     0  02:58           0        0.28       0.062
  YS02001661           JUNCTION      0.00    26.28     0  02:58           0        0.28       0.234
  YS02001664           JUNCTION     26.28    26.28     0  02:58        0.28        0.28       0.043
  YS02001622           JUNCTION      0.00    20.03     0  03:00           0       0.233       0.927
  YS02001633           JUNCTION     20.80    42.39     0  03:01       0.271       0.477       3.833
  YS02001649           JUNCTION      0.00    97.59     0  04:20           0       0.967       2.406
  YS02001757           JUNCTION      0.00   246.30     0  04:32           0        2.04       3.399
  YS02001895           JUNCTION      0.00    37.27     0  03:01           0       0.378       0.705
  YS02001625           JUNCTION      0.00    22.21     0  03:05           0       0.231       6.289
  YS02163301           JUNCTION      0.00    22.96     0  03:01           0       0.219       5.625
  YS02163601           JUNCTION      0.11    45.17     0  03:04      0.0031       0.459       4.210
  YS02164001           JUNCTION      0.00    45.10     0  03:12           0       0.449       2.564
  YS02001647           JUNCTION      0.00    66.92     0  03:03           0       0.671       1.734
  YSB1154              JUNCTION      4.15     4.15     0  02:23      0.0193      0.0208       7.478
  YSB6556              JUNCTION      0.00     4.08     0  02:26           0      0.0219       6.021
  YSB1174              JUNCTION      4.19     4.19     0  02:17      0.0142      0.0153       9.186
  YSB1171              JUNCTION      0.00     7.57     0  02:28           0      0.0427      17.354
  YS02006553           JUNCTION      0.00    68.09     0  03:05           0       0.796       1.699
  YS02006561           JUNCTION      0.00    99.39     0  03:02           0        1.11       0.038
  YS02006556           JUNCTION      0.00    68.19     0  03:05           0       0.799       1.207
  YS02006558           JUNCTION     31.92    99.41     0  03:02       0.362        1.14       0.360
  YS02001783           JUNCTION      0.00    99.38     0  03:02           0        1.11       0.088
  YS02001784           JUNCTION      1.06   100.42     0  03:03      0.0299        1.14       0.148
  YS02001786           JUNCTION      0.06   100.46     0  03:03     0.00159        1.14       0.148
  YS02001788           JUNCTION      0.07   100.52     0  03:04       0.002        1.14       0.079
  YS02001790           JUNCTION      0.15   100.67     0  03:04     0.00437        1.15       0.104
  YS02001791           JUNCTION      0.00   100.66     0  03:04           0        1.15       0.049
  YS02001793           JUNCTION      0.00   100.66     0  03:04           0        1.15       0.021
  WS02004139           JUNCTION      0.32   379.67     0  02:50     0.00905        6.76       0.482
  WSC                  OUTFALL       0.00   727.39     0  03:23           0        12.1       0.000
  3                    OUTFALL       0.00   597.65     0  00:00           0       0.441       0.000
  4                    OUTFALL       0.00    24.35     0  03:15           0      0.0229       0.000
  5                    OUTFALL       0.00     0.00     0  00:00           0           0       0.000 ltr
  JK-storage           STORAGE       0.00   100.66     0  03:04           0         1.3     -37.806
  CC-storage           STORAGE       0.00   156.04     0  03:14           0        1.67     -37.061
  XR-storage           STORAGE     235.49   235.49     0  03:01        6.09        6.69      -1.993
  
  
  **********************
  Node Surcharge Summary
  **********************
  
  Surcharging occurs when water rises above the top of the highest conduit.
  ---------------------------------------------------------------------
                                               Max. Height   Min. Depth
                                   Hours       Above Crown    Below Rim
  Node                 Type      Surcharged         Meters       Meters
  ---------------------------------------------------------------------
  WS02006109           JUNCTION        0.41          0.021        1.799
  WS02006232           JUNCTION        0.38          0.026        1.454
  WS02006238           JUNCTION        0.22          0.008        1.422
  WS02006252           JUNCTION        0.69          0.111        0.989
  WS02006256           JUNCTION        0.01          1.050        0.000
  WS02006228           JUNCTION        0.39          0.022        2.178
  
  
  *********************
  Node Flooding Summary
  *********************
  
  Flooding refers to all water that overflows a node, whether it ponds or not.
  --------------------------------------------------------------------------
                                                             Total   Maximum
                                 Maximum   Time of Max       Flood    Ponded
                        Hours       Rate    Occurrence      Volume     Depth
  Node                 Flooded       LPS   days hr:min    10^6 ltr    Meters
  --------------------------------------------------------------------------
  WS02006256              0.01    406.11      0  00:00       0.001     0.000
  
  
  **********************
  Storage Volume Summary
  **********************
  
  --------------------------------------------------------------------------------------------------
                         Average     Avg  Evap Exfil       Maximum     Max    Time of Max    Maximum
                          Volume    Pcnt  Pcnt  Pcnt        Volume    Pcnt     Occurrence    Outflow
  Storage Unit           1000 m3    Full  Loss  Loss       1000 m3    Full    days hr:min        LPS
  --------------------------------------------------------------------------------------------------
  JK-storage               0.002       1     0     0         0.151      52       0  00:00     600.00
  CC-storage               0.003       0     0     0         0.045       0       0  03:36     317.35
  XR-storage               0.092      10     0     0         0.600      65       0  00:00     379.94
  
  
  ***********************
  Outfall Loading Summary
  ***********************
  
  -----------------------------------------------------------
                         Flow       Avg       Max       Total
                         Freq      Flow      Flow      Volume
  Outfall Node           Pcnt       LPS       LPS    10^6 ltr
  -----------------------------------------------------------
  WSC                   99.99    491.08    727.39      12.071
  3                     43.03     68.62    597.65       0.441
  4                     10.60     16.55     24.35       0.023
  5                      0.00      0.00      0.00       0.000
  -----------------------------------------------------------
  System                38.41    576.25    848.99      12.535
  
  
  ********************
  Link Flow Summary
  ********************
  
  -----------------------------------------------------------------------------
                                 Maximum  Time of Max   Maximum    Max/    Max/
                                  |Flow|   Occurrence   |Veloc|    Full    Full
  Link                 Type          LPS  days hr:min     m/sec    Flow   Depth
  -----------------------------------------------------------------------------
  WS02003066WSF200     CONDUIT    418.06     0  03:22      2.61    0.07    0.20
  WS02006287WS02006284 CONDUIT     71.74     0  02:31      1.11    0.03    0.14
  WS02006284WS02006280 CONDUIT     71.82     0  02:31      1.36    0.03    0.12
  WS02006280WS02006229 CONDUIT     71.82     0  02:31      2.18    0.02    0.09
  WS02006229WS02006228 CONDUIT    417.46     0  03:09      0.85    1.38    1.00
  WS02006256WS02006235 CONDUIT    177.52     0  00:01      2.73    1.88    1.00
  WS02006253WS02006251 CONDUIT     61.01     0  07:11      0.33    0.18    0.78
  WS02006252WS02006251 CONDUIT    317.33     0  04:17      2.76    1.16    0.97
  WS02006251WS02006249 CONDUIT    317.09     0  03:15      1.05    0.91    0.78
  WS02006249WS02006248 CONDUIT    297.00     0  03:04      1.12    1.63    0.75
  WS02006248WS02006247 CONDUIT    294.95     0  03:07      1.09    0.64    0.79
  WS02006247WS02006245 CONDUIT    293.10     0  03:07      1.05    2.32    0.82
  WS02006245WS02006243 CONDUIT    293.00     0  03:11      1.11    0.87    0.83
  WS02006243WS02006242 CONDUIT    293.09     0  03:11      0.96    0.63    0.92
  WS02006242WS02006240 CONDUIT    294.09     0  03:20      0.85    1.17    0.96
  WS02006240WS02006239 CONDUIT    294.33     0  03:20      0.87    0.93    0.94
  WS02006239WS02006238 CONDUIT    295.22     0  03:20      0.77    0.94    1.00
  WS02006238WS02006235 CONDUIT    295.38     0  03:20      1.32    0.66    1.00
  WS02006235WS02006234 CONDUIT    369.05     0  03:17      0.99    3.89    0.95
  WS02006234WS02006232 CONDUIT    368.96     0  03:17      1.17    0.75    0.97
  WS02006232WS02006231 CONDUIT    369.01     0  03:17      1.01    0.77    0.91
  WS02006231WS02006230 CONDUIT    369.06     0  03:17      1.31    5.60    0.75
  WS02006230WS02006229 CONDUIT    379.63     0  03:17      0.99    8.45    1.00
  WS02006228WS02006109 CONDUIT    417.46     0  03:09      0.83    1.82    1.00
  WS02006116WS02004401 CONDUIT    418.63     0  03:17      0.67    0.58    0.75
  WS02006115WS02006116 CONDUIT    418.78     0  03:16      0.77    0.54    0.66
  WS02006113WS02006111 CONDUIT    428.65     0  03:10      2.25    0.51    0.40
  WS02006112WS02006115 CONDUIT    419.04     0  03:15      0.64    0.25    0.79
  WS02006111WS02006112 CONDUIT    419.63     0  03:10      1.21    0.20    0.65
  WS02006110WS02006113 CONDUIT    418.73     0  03:09      1.04    0.38    0.75
  WS02006109WS02006110 CONDUIT    418.70     0  03:09      0.85    0.81    0.95
  WS02004411WS02004412 CONDUIT    418.16     0  03:21      0.82    0.59    0.62
  WS02004401WS02004402 CONDUIT    418.55     0  03:17      0.64    0.50    0.77
  WS02004413WS02003067 CONDUIT    418.06     0  03:21      0.97    0.18    0.54
  WS02004412WS02004413 CONDUIT    418.09     0  03:21      0.70    0.28    0.71
  WS02004410WS02004411 CONDUIT    418.26     0  03:20      0.84    0.57    0.61
  WS02004409WS02004410 CONDUIT    418.43     0  03:19      0.87    0.54    0.59
  WS02004407WS02004409 CONDUIT    418.64     0  03:19      1.35    0.15    0.42
  WS02004406WS02004407 CONDUIT    418.65     0  03:19      0.90    0.19    0.57
  WS02004405WS02004406 CONDUIT    418.66     0  03:18      0.57    0.83    0.88
  WS02004404WS02004405 CONDUIT    418.63     0  03:18      0.57    4.10    0.88
  WS02004403WS02004404 CONDUIT    418.48     0  03:18      0.59    0.30    0.85
  WS02004402WS02004403 CONDUIT    418.51     0  03:18      0.62    0.60    0.80
  WS02004139WS02001211 CONDUIT    373.80     0  02:50      0.80    0.47    0.56
  WS02004138WS02004139 CONDUIT    379.35     0  02:50      3.34    0.08    0.42
  WS02003067WS02003066 CONDUIT    418.06     0  03:22      1.05    0.13    0.38
  WS02001213WS02003059 CONDUIT    372.19     0  02:52      0.80    0.61    0.69
  WS02001212WS02001213 CONDUIT    374.42     0  02:51      1.30    0.58    0.41
  WS02001211WS02001212 CONDUIT    376.52     0  02:51      0.76    0.29    0.60
  WS02003072WS02003073 CONDUIT    725.70     0  03:23      1.58    1.57    0.43
  WS02003069WS02003072 CONDUIT    725.80     0  03:22      1.49    0.35    0.44
  WS02003060WS02003069 CONDUIT    725.59     0  03:22      1.75    0.28    0.39
  WS02003059WS02003060 CONDUIT    370.22     0  02:52      0.92    0.24    0.59
  HS02004901HS02004770 CONDUIT      3.20     0  02:26      0.02    0.01    0.22
  HS02004876HS02004881 CONDUIT     10.57     0  02:30      0.28    0.11    0.05
  HS02004870HS02004876 CONDUIT      8.35     0  02:29      0.20    0.01    0.06
  HS02004842HS02004848 CONDUIT      2.32     0  02:37      0.01    0.00    0.25
  HS02004837HS02004842 CONDUIT      4.47     0  00:03      0.41    0.00    0.27
  HS02004830HS02004837 CONDUIT     12.70     0  02:26      0.34    0.01    0.05
  HS02004824HS02004830 CONDUIT     12.85     0  02:27      0.38    0.02    0.05
  HS02004817HS02004824 CONDUIT     17.49     0  02:30      0.17    0.01    0.35
  HS02004770HS02004777 CONDUIT     16.40     0  02:24      0.10    0.03    0.23
  HS02004799HS02004480 CONDUIT     41.89     0  02:29      0.32    0.05    0.19
  HS02004792HS02004799 CONDUIT     38.36     0  02:28      0.38    0.02    0.14
  HS02004788HS02004792 CONDUIT     22.59     0  02:30      0.55    0.01    0.06
  HS02004785HS02004788 CONDUIT     16.14     0  02:30      0.30    0.12    0.08
  HS02004777HS02004785 CONDUIT     16.07     0  02:28      0.13    0.02    0.18
  HS02004480HS02004478 CONDUIT     49.28     0  02:30      0.59    0.21    0.12
  HS02004479HS02004480 CONDUIT      7.55     0  02:33      0.16    0.01    0.19
  HS02004862HS02004870 CONDUIT      5.92     0  02:30      0.29    0.01    0.03
  HS02004848HS02004852 CONDUIT      1.93     0  02:29      0.18    0.00    0.02
  HS02004856HS02004862 CONDUIT      3.71     0  02:29      0.20    0.00    0.03
  HS02004852HS02004856 CONDUIT      1.91     0  02:31      0.04    0.00    0.07
  HS02004802HS02004478 CONDUIT     22.56     0  02:33      0.18    0.02    0.18
  HS02004478WS02006287 CONDUIT     71.75     0  02:30      0.81    0.02    0.10
  HS02004817HS02004807 CONDUIT     18.14     0  02:34      0.06    0.01    0.43
  HS02004807HS02004802 CONDUIT     22.51     0  02:31      0.19    0.04    0.22
  YS02001759YS02001757 CONDUIT     65.31     0  03:06      0.12    0.05    0.78
  YS02001762YS02001759 CONDUIT     52.87     0  04:39      0.17    0.06    0.70
  YS02001765YS02001762 CONDUIT     35.28     0  03:06      0.22    0.03    0.66
  YS02001770YS02001767 CONDUIT     35.47     0  03:05      0.28    0.14    0.60
  YS02001774YS02001770 CONDUIT     17.03     0  02:40      0.13    0.01    0.62
  YS02001779YS02001774 CONDUIT      8.82     0  04:40      0.04    0.00    0.54
  YS02001649YS02001757 CONDUIT     94.98     0  03:14      0.15    0.06    0.76
  YS02001767YS02001765 CONDUIT     51.47     0  04:25      0.26    0.06    0.62
  YS02006561YS02001783 CONDUIT     99.38     0  03:02      1.32    0.05    0.21
  YS02001783YS02001784 CONDUIT     99.36     0  03:03      0.85    0.14    0.28
  YS02001784YS02001785 CONDUIT    100.40     0  03:03      0.86    0.23    0.28
  YS02001788YS02001790 CONDUIT    100.52     0  03:04      1.37    0.07    0.20
  YS02001790YS02001791 CONDUIT    100.66     0  03:04      1.56    0.11    0.19
  YS02001791YS02001793 CONDUIT    100.66     0  03:04      2.78    0.04    0.12
  YS02001910YS02001907 CONDUIT     30.99     0  03:05      0.49    0.02    0.56
  YS02001786YS02001788 CONDUIT    100.45     0  03:04      1.21    0.19    0.22
  YS02001915YS02001910 CONDUIT     31.04     0  03:01      0.44    0.02    0.35
  YS02001918YS02001915 CONDUIT     11.48     0  03:06      0.44    0.01    0.15
  YS02001923YS02001920 CONDUIT      8.63     0  03:03      0.23    0.00    0.09
  YS02001926YS02001923 CONDUIT      8.59     0  03:03      0.30    0.01    0.08
  YS02001929YS02001926 CONDUIT      8.57     0  03:01      0.31    0.00    0.08
  YS02001920YS02001918 CONDUIT     11.49     0  03:04      0.28    0.01    0.10
  YS02001629YS02163301 CONDUIT     22.96     0  03:01      0.07    0.03    0.56
  YS02001619YS02001622 CONDUIT     20.03     0  03:00      0.47    0.03    0.18
  YS02001622YS02001625 CONDUIT     22.21     0  03:05      0.15    0.01    0.34
  YS02001625YS02001629 CONDUIT     21.84     0  02:54      0.13    0.01    0.32
  YS02163301YS02001633 CONDUIT     22.66     0  03:12      0.07    0.02    0.60
  YS02163601YS02164001 CONDUIT     45.10     0  03:12      0.08    0.04    0.66
  YS02164001YS02001641 CONDUIT     45.49     0  03:13      0.09    0.06    0.64
  YS02001641YS02001644 CONDUIT     42.52     0  03:03      0.10    0.14    0.65
  YS02001647YS02001649 CONDUIT     64.59     0  03:02      0.14    0.03    0.59
  YS02006553YS02006556 CONDUIT     68.19     0  03:05      0.18    0.06    0.64
  YS02006556YS02006558 CONDUIT     68.22     0  03:05      0.12    0.05    0.67
  YSB6556YSB1171       CONDUIT      4.09     0  02:31      0.03    0.00    0.45
  YS02001907YS02006553 CONDUIT     68.09     0  03:05      0.10    0.08    0.73
  YS02006558YS02006561 CONDUIT     99.39     0  03:02      1.68    0.22    0.26
  YS02001633YS02163601 CONDUIT     45.06     0  03:04      0.08    0.05    0.65
  YS02001644YS02001647 CONDUIT     66.92     0  03:03      0.15    0.04    0.57
  YS02001745YS02001748 CONDUIT     21.51     0  03:01      1.00    0.01    0.06
  YS02001748YS02001751 CONDUIT     21.55     0  03:01      0.82    0.01    0.14
  YS02001751YS02001754 CONDUIT     54.86     0  04:35      0.77    0.03    0.32
  YS02001754YS02001757 CONDUIT    114.00     0  04:45      0.33    0.05    0.66
  YS02001882YS02001884 CONDUIT      1.53     0  02:12      0.06    0.00    0.28
  YS02001884YS02001887 CONDUIT      4.93     0  02:10      0.05    0.01    0.37
  YS02001890YS02001895 CONDUIT     37.27     0  03:01      0.16    0.02    0.34
  YS02001895YS02001898 CONDUIT     37.24     0  03:01      0.37    0.06    0.21
  YS02001898YS02001901 CONDUIT     37.33     0  03:02      0.20    0.02    0.29
  YS02001901YS02001904 CONDUIT     37.23     0  03:03      0.19    0.06    0.34
  YS02001904YS02001907 CONDUIT     37.37     0  03:03      0.10    0.01    0.50
  YS02001887YS02001890 CONDUIT     37.40     0  02:58      0.12    0.06    0.43
  YS02001652YS02001649 CONDUIT     40.84     0  04:31      0.24    0.02    0.60
  YS02001655YS02001652 CONDUIT     32.71     0  02:57      0.82    0.02    0.35
  YS02001658YS02001655 CONDUIT     26.28     0  02:58      0.93    0.01    0.16
  YS02001661YS02001658 CONDUIT     26.28     0  02:58      1.02    0.01    0.07
  YS02001664YS02001661 CONDUIT     26.28     0  02:58      0.62    0.01    0.10
  YSB1154YSB6556       CONDUIT      4.08     0  02:26      0.19    0.01    0.34
  YSB1174YSB1171       CONDUIT      3.94     0  02:18      0.02    0.01    0.46
  YSB1171HS02004479    CONDUIT      7.48     0  02:31      0.54    0.00    0.34
  HS02004881HS02006253 CONDUIT     11.89     0  02:30      1.04    0.00    0.17
  YS02001793JiankangQianchi CONDUIT    100.66     0  03:04      9.40    0.01    0.50
  YS02001757CaochengTiaoxuchi CONDUIT    156.04     0  03:14      0.51    0.07    0.42
  WSF200WS02003060     CONDUIT    418.04     0  03:22      1.66    0.09    0.29
  1                    CONDUIT    727.39     0  03:23      3.05    0.25    0.34
  2                    CONDUIT     24.35     0  03:15      3.22    0.06    0.16
  3                    CONDUIT    597.65     0  00:00     10.05    0.95    0.86
  4                    CONDUIT      0.00     0  00:00      0.00    0.00    0.00
  CC-Pump-1            PUMP       158.67     0  04:17              0.79
  CC-Pump-2            PUMP       200.00     0  03:40              1.00
  JK-Pump-1            PUMP       300.00     0  00:00              1.00
  JK-Pump-2            PUMP       300.00     0  00:00              1.00
  XR-Pump-1            PUMP        95.00     0  00:00              1.00
  XR-Pump-2            PUMP        95.00     0  00:20              1.00
  XR-Pump-3            PUMP        95.00     0  00:00              1.00
  XR-Pump-4            PUMP        95.00     0  00:00              1.00
  
  
  ***************************
  Flow Classification Summary
  ***************************
  
  -------------------------------------------------------------------------------------
                      Adjusted    ---------- Fraction of Time in Flow Class ---------- 
                       /Actual         Up    Down  Sub   Sup   Up    Down  Norm  Inlet 
  Conduit               Length    Dry  Dry   Dry   Crit  Crit  Crit  Crit  Ltd   Ctrl  
  -------------------------------------------------------------------------------------
  WS02003066WSF200        1.00   0.07  0.01  0.00  0.00  0.91  0.00  0.00  0.70  0.00
  WS02006287WS02006284    1.00   0.04  0.02  0.00  0.76  0.18  0.00  0.00  0.81  0.00
  WS02006284WS02006280    1.00   0.05  0.00  0.00  0.00  0.00  0.00  0.95  0.00  0.00
  WS02006280WS02006229    1.00   0.05  0.00  0.00  0.00  0.00  0.00  0.95  0.00  0.00
  WS02006229WS02006228    1.00   0.00  0.00  0.00  0.98  0.00  0.00  0.02  0.00  0.00
  WS02006256WS02006235    1.00   0.00  0.00  0.00  0.99  0.01  0.00  0.00  0.00  0.00
  WS02006253WS02006251    1.00   0.03  0.01  0.00  0.95  0.00  0.00  0.00  0.00  0.00
  WS02006252WS02006251    1.00   0.12  0.00  0.00  0.00  0.00  0.88  0.00  0.00  0.00
  WS02006251WS02006249    1.00   0.00  0.00  0.00  1.00  0.00  0.00  0.00  0.37  0.00
  WS02006249WS02006248    1.00   0.00  0.02  0.00  0.85  0.00  0.13  0.00  0.00  0.00
  WS02006248WS02006247    1.00   0.02  0.00  0.00  0.97  0.00  0.00  0.01  0.27  0.00
  WS02006247WS02006245    1.00   0.02  0.00  0.00  0.95  0.00  0.00  0.03  0.00  0.00
  WS02006245WS02006243    1.00   0.02  0.00  0.00  0.90  0.00  0.00  0.08  0.04  0.00
  WS02006243WS02006242    1.00   0.01  0.01  0.00  0.98  0.00  0.00  0.00  0.36  0.00
  WS02006242WS02006240    1.00   0.01  0.00  0.00  0.99  0.00  0.00  0.00  0.00  0.00
  WS02006240WS02006239    1.00   0.00  0.00  0.00  0.94  0.00  0.00  0.06  0.02  0.00
  WS02006239WS02006238    1.00   0.00  0.00  0.00  1.00  0.00  0.00  0.00  0.00  0.00
  WS02006238WS02006235    1.00   0.00  0.00  0.00  1.00  0.00  0.00  0.00  0.00  0.00
  WS02006235WS02006234    1.00   0.00  0.00  0.00  0.93  0.00  0.07  0.00  0.00  0.00
  WS02006234WS02006232    1.00   0.00  0.00  0.00  1.00  0.00  0.00  0.00  0.10  0.00
  WS02006232WS02006231    1.00   0.00  0.00  0.00  0.99  0.00  0.01  0.00  0.00  0.00
  WS02006231WS02006230    1.00   0.01  0.00  0.00  0.21  0.00  0.79  0.00  0.00  0.00
  WS02006230WS02006229    1.00   0.00  0.00  0.00  0.98  0.00  0.00  0.02  0.01  0.00
  WS02006228WS02006109    1.00   0.00  0.00  0.00  0.99  0.00  0.00  0.00  0.00  0.00
  WS02006116WS02004401    1.00   0.03  0.00  0.00  0.97  0.00  0.00  0.00  0.00  0.00
  WS02006115WS02006116    1.00   0.03  0.00  0.00  0.96  0.00  0.00  0.01  0.01  0.00
  WS02006113WS02006111    1.00   0.02  0.00  0.00  0.00  0.98  0.00  0.00  0.15  0.00
  WS02006112WS02006115    1.00   0.02  0.00  0.00  0.97  0.00  0.00  0.00  0.00  0.00
  WS02006111WS02006112    1.00   0.02  0.00  0.00  0.98  0.00  0.00  0.00  0.98  0.00
  WS02006110WS02006113    1.00   0.02  0.00  0.00  0.98  0.00  0.00  0.00  0.00  0.00
  WS02006109WS02006110    1.00   0.00  0.02  0.00  0.98  0.00  0.00  0.00  0.00  0.00
  WS02004411WS02004412    1.00   0.06  0.00  0.00  0.94  0.00  0.00  0.00  0.00  0.00
  WS02004401WS02004402    1.00   0.03  0.00  0.00  0.97  0.00  0.00  0.00  0.00  0.00
  WS02004413WS02003067    1.00   0.06  0.02  0.00  0.00  0.00  0.92  0.00  0.00  0.00
  WS02004412WS02004413    1.00   0.06  0.00  0.00  0.94  0.00  0.00  0.00  0.03  0.00
  WS02004410WS02004411    1.00   0.06  0.00  0.00  0.94  0.00  0.00  0.00  0.01  0.00
  WS02004409WS02004410    1.00   0.06  0.00  0.00  0.94  0.00  0.00  0.00  0.01  0.00
  WS02004407WS02004409    1.00   0.06  0.00  0.00  0.94  0.00  0.00  0.00  0.80  0.00
  WS02004406WS02004407    1.00   0.00  0.06  0.00  0.94  0.00  0.00  0.00  0.00  0.00
  WS02004405WS02004406    1.00   0.00  0.00  0.00  1.00  0.00  0.00  0.00  0.02  0.00
  WS02004404WS02004405    1.00   0.00  0.00  0.00  1.00  0.00  0.00  0.00  0.00  0.00
  WS02004403WS02004404    1.00   0.00  0.03  0.00  0.97  0.00  0.00  0.00  0.02  0.00
  WS02004402WS02004403    1.00   0.03  0.00  0.00  0.97  0.00  0.00  0.00  0.00  0.00
  WS02004139WS02001211    1.00   0.00  0.00  0.00  0.99  0.00  0.01  0.00  0.00  0.00
  WS02004138WS02004139    1.00   0.00  0.00  0.00  0.98  0.01  0.00  0.00  1.00  0.00
  WS02003067WS02003066    1.00   0.08  0.01  0.00  0.92  0.00  0.00  0.00  0.00  0.00
  WS02001213WS02003059    1.00   0.00  0.00  0.00  0.99  0.00  0.00  0.00  0.00  0.00
  WS02001212WS02001213    1.00   0.01  0.00  0.00  0.67  0.00  0.32  0.00  0.00  0.00
  WS02001211WS02001212    1.00   0.00  0.01  0.00  0.99  0.00  0.00  0.00  0.00  0.00
  WS02003072WS02003073    1.00   0.00  0.00  0.00  0.00  0.00  0.00  1.00  0.00  0.00
  WS02003069WS02003072    1.00   0.00  0.00  0.00  0.99  0.01  0.00  0.00  0.35  0.00
  WS02003060WS02003069    1.00   0.00  0.00  0.00  0.98  0.02  0.00  0.00  0.14  0.00
  WS02003059WS02003060    1.00   0.00  0.00  0.00  0.99  0.01  0.00  0.00  0.01  0.00
  HS02004901HS02004770    1.00   0.05  0.00  0.00  0.95  0.00  0.00  0.00  0.04  0.00
  HS02004876HS02004881    1.00   0.02  0.00  0.00  0.98  0.00  0.00  0.00  0.00  0.00
  HS02004870HS02004876    1.00   0.01  0.00  0.00  0.99  0.00  0.00  0.00  0.95  0.00
  HS02004842HS02004848    1.00   0.00  0.05  0.00  0.95  0.00  0.00  0.00  0.73  0.00
  HS02004837HS02004842    1.00   0.00  0.00  0.00  0.99  0.01  0.00  0.00  0.11  0.00
  HS02004830HS02004837    1.00   0.00  0.00  0.00  1.00  0.00  0.00  0.00  0.99  0.00
  HS02004824HS02004830    1.00   0.00  0.00  0.00  1.00  0.00  0.00  0.00  0.00  0.00
  HS02004817HS02004824    1.00   0.00  0.00  0.00  1.00  0.00  0.00  0.00  1.00  0.00
  HS02004770HS02004777    1.00   0.00  0.05  0.00  0.95  0.00  0.00  0.00  0.08  0.00
  HS02004799HS02004480    1.00   0.01  0.02  0.00  0.93  0.00  0.04  0.00  0.00  0.00
  HS02004792HS02004799    1.00   0.00  0.00  0.00  0.98  0.02  0.00  0.00  0.98  0.00
  HS02004788HS02004792    1.00   0.00  0.00  0.00  0.98  0.02  0.00  0.00  0.98  0.00
  HS02004785HS02004788    1.00   0.00  0.00  0.00  1.00  0.00  0.00  0.00  0.00  0.00
  HS02004777HS02004785    1.00   0.00  0.00  0.00  1.00  0.00  0.00  0.00  0.22  0.00
  HS02004480HS02004478    1.00   0.05  0.00  0.00  0.77  0.00  0.00  0.18  0.00  0.00
  HS02004479HS02004480    1.00   0.03  0.00  0.00  0.97  0.00  0.00  0.00  0.17  0.00
  HS02004862HS02004870    1.00   0.00  0.00  0.00  1.00  0.00  0.00  0.00  0.05  0.00
  HS02004848HS02004852    1.00   0.05  0.00  0.00  0.95  0.00  0.00  0.00  0.68  0.00
  HS02004856HS02004862    1.00   0.00  0.08  0.00  0.92  0.00  0.00  0.00  0.72  0.00
  HS02004852HS02004856    1.00   0.05  0.01  0.00  0.94  0.00  0.00  0.00  0.81  0.00
  HS02004802HS02004478    1.00   0.05  0.01  0.00  0.94  0.00  0.00  0.00  0.00  0.00
  HS02004478WS02006287    1.00   0.06  0.00  0.00  0.94  0.00  0.00  0.00  0.81  0.00
  HS02004817HS02004807    1.00   0.00  0.05  0.00  0.95  0.00  0.00  0.00  0.00  0.00
  HS02004807HS02004802    1.00   0.05  0.00  0.00  0.95  0.00  0.00  0.00  0.01  0.00
  YS02001759YS02001757    1.00   0.00  0.00  0.00  1.00  0.00  0.00  0.00  0.17  0.00
  YS02001762YS02001759    1.00   0.00  0.00  0.00  1.00  0.00  0.00  0.00  0.06  0.00
  YS02001765YS02001762    1.00   0.00  0.00  0.00  1.00  0.00  0.00  0.00  0.24  0.00
  YS02001770YS02001767    1.00   0.00  0.00  0.00  1.00  0.00  0.00  0.00  0.00  0.00
  YS02001774YS02001770    1.00   0.00  0.06  0.00  0.94  0.00  0.00  0.00  0.06  0.00
  YS02001779YS02001774    1.00   0.00  0.00  0.00  1.00  0.00  0.00  0.00  0.29  0.00
  YS02001649YS02001757    1.00   0.00  0.00  0.00  1.00  0.00  0.00  0.00  0.20  0.00
  YS02001767YS02001765    1.00   0.00  0.00  0.00  1.00  0.00  0.00  0.00  0.01  0.00
  YS02006561YS02001783    1.00   0.08  0.00  0.00  0.00  0.92  0.00  0.00  0.71  0.00
  YS02001783YS02001784    1.00   0.00  0.08  0.00  0.92  0.00  0.00  0.00  0.30  0.00
  YS02001784YS02001785    1.00   0.00  0.00  0.00  1.00  0.00  0.00  0.00  0.27  0.00
  YS02001788YS02001790    1.00   0.00  0.00  0.00  0.09  0.91  0.00  0.00  0.99  0.00
  YS02001790YS02001791    1.00   0.00  0.00  0.00  0.02  0.98  0.00  0.00  0.16  0.00
  YS02001791YS02001793    1.00   0.00  0.00  0.00  0.00  1.00  0.00  0.00  0.00  0.00
  YS02001910YS02001907    1.00   0.00  0.00  0.00  0.98  0.00  0.00  0.02  0.13  0.00
  YS02001786YS02001788    1.00   0.00  0.00  0.00  0.29  0.71  0.00  0.00  0.00  0.00
  YS02001915YS02001910    1.00   0.00  0.00  0.00  1.00  0.00  0.00  0.00  0.26  0.00
  YS02001918YS02001915    1.00   0.00  0.01  0.00  0.98  0.01  0.00  0.00  0.79  0.00
  YS02001923YS02001920    1.00   0.00  0.00  0.00  1.00  0.00  0.00  0.00  1.00  0.00
  YS02001926YS02001923    1.00   0.00  0.03  0.00  0.00  0.00  0.97  0.00  0.00  0.00
  YS02001929YS02001926    1.00   0.00  0.05  0.00  0.95  0.00  0.00  0.00  0.86  0.00
  YS02001920YS02001918    1.00   0.00  0.01  0.00  0.99  0.00  0.00  0.00  0.00  0.00
  YS02001629YS02163301    1.00   0.07  0.00  0.00  0.92  0.00  0.00  0.00  0.00  0.00
  YS02001619YS02001622    1.00   0.05  0.00  0.00  0.95  0.00  0.00  0.00  0.00  0.00
  YS02001622YS02001625    1.00   0.05  0.00  0.00  0.95  0.00  0.00  0.00  0.15  0.00
  YS02001625YS02001629    1.00   0.05  0.04  0.00  0.88  0.00  0.03  0.00  0.00  0.00
  YS02163301YS02001633    1.00   0.00  0.07  0.00  0.93  0.00  0.00  0.00  0.00  0.00
  YS02163601YS02164001    1.00   0.00  0.04  0.00  0.96  0.00  0.00  0.00  0.00  0.00
  YS02164001YS02001641    1.00   0.02  0.02  0.00  0.96  0.00  0.00  0.00  0.07  0.00
  YS02001641YS02001644    1.00   0.00  0.01  0.00  0.99  0.00  0.00  0.00  0.00  0.00
  YS02001647YS02001649    1.00   0.00  0.08  0.00  0.92  0.00  0.00  0.00  0.01  0.00
  YS02006553YS02006556    1.00   0.02  0.00  0.00  0.98  0.00  0.00  0.00  0.03  0.00
  YS02006556YS02006558    1.00   0.00  0.01  0.00  0.99  0.00  0.00  0.00  0.00  0.00
  YSB6556YSB1171          1.00   0.03  0.02  0.00  0.95  0.00  0.00  0.00  0.00  0.00
  YS02001907YS02006553    1.00   0.01  0.02  0.00  0.98  0.00  0.00  0.00  0.00  0.00
  YS02006558YS02006561    1.00   0.08  0.00  0.00  0.00  0.92  0.00  0.00  0.70  0.00
  YS02001633YS02163601    1.00   0.00  0.01  0.00  0.99  0.00  0.00  0.00  0.21  0.00
  YS02001644YS02001647    1.00   0.00  0.08  0.00  0.92  0.00  0.00  0.00  0.00  0.00
  YS02001745YS02001748    1.00   0.00  0.00  0.00  0.00  0.00  0.00  1.00  0.00  0.00
  YS02001748YS02001751    1.00   0.00  0.00  0.00  0.96  0.04  0.00  0.00  0.90  0.00
  YS02001751YS02001754    1.00   0.00  0.00  0.00  0.91  0.00  0.00  0.09  0.04  0.00
  YS02001754YS02001757    1.00   0.00  0.00  0.00  0.99  0.01  0.00  0.00  0.29  0.00
  YS02001882YS02001884    1.00   0.07  0.01  0.00  0.93  0.00  0.00  0.00  0.00  0.00
  YS02001884YS02001887    1.00   0.03  0.01  0.00  0.96  0.00  0.00  0.00  0.00  0.00
  YS02001890YS02001895    1.00   0.00  0.07  0.00  0.92  0.00  0.00  0.00  0.00  0.00
  YS02001895YS02001898    1.00   0.08  0.00  0.00  0.91  0.00  0.01  0.00  0.00  0.00
  YS02001898YS02001901    1.00   0.07  0.01  0.00  0.92  0.00  0.00  0.00  0.02  0.00
  YS02001901YS02001904    1.00   0.07  0.00  0.00  0.93  0.00  0.00  0.00  0.00  0.00
  YS02001904YS02001907    1.00   0.01  0.06  0.00  0.93  0.00  0.00  0.00  0.00  0.00
  YS02001887YS02001890    1.00   0.00  0.00  0.00  0.97  0.00  0.02  0.00  0.00  0.00
  YS02001652YS02001649    1.00   0.00  0.00  0.00  1.00  0.00  0.00  0.00  0.28  0.00
  YS02001655YS02001652    1.00   0.00  0.00  0.00  0.91  0.00  0.00  0.09  0.04  0.00
  YS02001658YS02001655    1.00   0.00  0.06  0.00  0.90  0.04  0.00  0.00  0.79  0.00
  YS02001661YS02001658    1.00   0.06  0.00  0.00  0.00  0.94  0.00  0.00  0.73  0.00
  YS02001664YS02001661    1.00   0.05  0.00  0.00  0.95  0.00  0.00  0.00  0.86  0.00
  YSB1154YSB6556          1.00   0.05  0.00  0.00  0.95  0.00  0.00  0.00  0.02  0.00
  YSB1174YSB1171          1.00   0.03  0.01  0.00  0.96  0.00  0.00  0.00  0.00  0.00
  YSB1171HS02004479       1.00   0.03  0.00  0.00  0.97  0.00  0.00  0.00  0.14  0.00
  HS02004881HS02006253    1.00   0.03  0.00  0.00  0.57  0.02  0.00  0.38  0.36  0.00
  YS02001793JiankangQianchi    1.00   0.00  0.00  0.00  0.02  0.98  0.00  0.00  0.03  0.00
  YS02001757CaochengTiaoxuchi    1.00   0.00  0.12  0.00  0.88  0.00  0.00  0.00  0.00  0.00
  WSF200WS02003060        1.00   0.00  0.07  0.00  0.81  0.12  0.00  0.00  0.61  0.00
  1                       1.00   0.00  0.00  0.00  0.00  1.00  0.00  0.00  0.41  0.00
  2                       1.00   0.89  0.00  0.00  0.00  0.11  0.00  0.00  0.00  0.00
  3                       1.00   0.57  0.00  0.00  0.00  0.43  0.00  0.00  0.07  0.00
  4                       1.00   1.00  0.00  0.00  0.00  0.00  0.00  0.00  0.00  0.00
  
  
  *************************
  Conduit Surcharge Summary
  *************************
  
  ----------------------------------------------------------------------------
                                                           Hours        Hours 
                         --------- Hours Full --------   Above Full   Capacity
  Conduit                Both Ends  Upstream  Dnstream   Normal Flow   Limited
  ----------------------------------------------------------------------------
  WS02006229WS02006228        0.39      0.42      0.39      1.21         0.39
  WS02006256WS02006235        5.08      5.08      7.08      1.45         0.01
  WS02006252WS02006251        0.01      0.01      0.69      0.56         0.01
  WS02006249WS02006248        0.01      0.01      0.01      1.42         0.01
  WS02006247WS02006245        0.01      0.01      0.01      3.14         0.01
  WS02006242WS02006240        0.01      0.01      0.28      0.63         0.01
  WS02006239WS02006238        0.07      0.07      0.22      0.01         0.01
  WS02006238WS02006235        0.01      0.01      0.36      0.01         0.01
  WS02006235WS02006234        0.01      0.01      0.01      4.94         0.01
  WS02006234WS02006232        0.01      0.01      0.38      0.01         0.01
  WS02006232WS02006231        0.01      0.01      0.38      0.01         0.01
  WS02006231WS02006230        0.01      0.01      0.01      5.38         0.01
  WS02006230WS02006229        0.73      0.96      0.73      5.48         0.73
  WS02006228WS02006109        0.41      0.59      0.41      3.14         0.41
  WS02006111WS02006112        0.01      0.01      1.51      0.01         0.01
  WS02006110WS02006113        0.01      0.01      0.45      0.01         0.01
  WS02006109WS02006110        0.01      0.01      0.59      0.01         0.01
  WS02004404WS02004405        0.01      0.01      0.01      5.29         0.01
  WS02003072WS02003073        0.01      0.01      0.01      3.39         0.01
  YS02001793JiankangQianchi        0.01      0.01      0.04      0.01         0.01
  3                           0.01      0.01      0.01      0.01         0.01
  
  
  ***************
  Pumping Summary
  ***************
  
  ---------------------------------------------------------------------------------------------------------
                                                  Min       Avg       Max     Total     Power    % Time Off
                        Percent   Number of      Flow      Flow      Flow    Volume     Usage    Pump Curve
  Pump                 Utilized   Start-Ups       LPS       LPS       LPS  10^6 ltr     Kw-hr    Low   High
  ---------------------------------------------------------------------------------------------------------
  CC-Pump-1               50.07           5      0.00     90.67    158.67     1.172      5.11    0.0  100.0
  CC-Pump-2               58.57           2      0.00     98.80    200.00     1.482      6.40    0.0  100.0
  JK-Pump-1               91.50           5      0.00     58.37    300.00     1.043     19.76    0.0    0.0
  JK-Pump-2               82.96           6      0.00     61.63    300.00     1.041     19.73    0.0    0.0
  XR-Pump-1               89.35           6      0.00     63.90     95.00     1.653     35.85    0.0    0.0
  XR-Pump-2               76.58           5      0.00     74.49     95.00     1.596     35.49    0.0    0.0
  XR-Pump-3               89.35           4      0.00     71.85     95.00     1.767     38.94    0.0    0.0
  XR-Pump-4               89.37           5      0.00     73.20     95.00     1.739     39.06    0.0    0.0
  

  Analysis begun on:  Tue Dec 21 13:58:17 2021
  Analysis ended on:  Tue Dec 21 13:58:19 2021
  Total elapsed time: 00:00:02