
  EPA STORM WATER MANAGEMENT MODEL - VERSION 5.1 (Build 5.3.0.dev0)
  --------------------------------------------------------------

  WARNING 04: minimum elevation drop used for Conduit WS02004404WS02004405
  WARNING 03: negative offset ignored for Link YS02001904YS02001907
  
  *********************************************************
  NOTE: The summary statistics displayed in this report are
  based on results found at every computational time step,  
  not just on results from each reporting time step.
  *********************************************************
  
  ****************
  Analysis Options
  ****************
  Flow Units ............... LPS
  Process Models:
    Rainfall/Runoff ........ YES
    RDII ................... NO
    Snowmelt ............... NO
    Groundwater ............ NO
    Flow Routing ........... YES
    Ponding Allowed ........ NO
    Water Quality .......... NO
  Infiltration Method ...... HORTON
  Flow Routing Method ...... DYNWAVE
  Surcharge Method ......... EXTRAN
  Starting Date ............ 08/28/2015 08:00:00
  Ending Date .............. 08/28/2015 15:50:00
  Antecedent Dry Days ...... 8.0
  Report Time Step ......... 00:01:00
  Wet Time Step ............ 00:01:00
  Dry Time Step ............ 00:01:00
  Routing Time Step ........ 5.00 sec
  Variable Time Step ....... YES
  Maximum Trials ........... 8
  Number of Threads ........ 4
  Head Tolerance ........... 0.001500 m
  
  
  **************************        Volume         Depth
  Runoff Quantity Continuity     hectare-m            mm
  **************************     ---------       -------
  Total Precipitation ......         3.523         7.714
  Evaporation Loss .........         0.000         0.000
  Infiltration Loss ........         0.895         1.959
  Surface Runoff ...........         1.685         3.690
  Final Storage ............         0.944         2.067
  Continuity Error (%) .....        -0.018
  
  
  **************************        Volume        Volume
  Flow Routing Continuity        hectare-m      10^6 ltr
  **************************     ---------     ---------
  Dry Weather Inflow .......         0.616         6.165
  Wet Weather Inflow .......         1.685        16.845
  Groundwater Inflow .......         0.000         0.000
  RDII Inflow ..............         0.000         0.000
  External Inflow ..........         0.102         1.024
  External Outflow .........         1.990        19.903
  Flooding Loss ............         0.076         0.762
  Evaporation Loss .........         0.000         0.000
  Exfiltration Loss ........         0.000         0.000
  Initial Stored Volume ....         0.076         0.761
  Final Stored Volume ......         0.512         5.123
  Continuity Error (%) .....        -4.005
  
  
  *************************
  Highest Continuity Errors
  *************************
  Node YS02001774 (33.21%)
  Node HS02004842 (23.53%)
  Node JK-storage (-18.87%)
  Node YS02001884 (15.59%)
  Node YSB1171 (5.13%)
  
  
  ***************************
  Time-Step Critical Elements
  ***************************
  Link 3 (45.03%)
  Link WS02006252WS02006251 (43.93%)
  Link WS02006238WS02006235 (4.34%)
  Link WS02006280WS02006229 (1.71%)
  
  
  ********************************
  Highest Flow Instability Indexes
  ********************************
  Link WS02006113WS02006111 (33)
  Link WS02006111WS02006112 (23)
  Link YS02001619YS02001622 (18)
  Link WS02006252WS02006251 (17)
  Link YS02001779YS02001774 (17)
  
  
  *************************
  Routing Time Step Summary
  *************************
  Minimum Time Step           :     0.27 sec
  Average Time Step           :     0.80 sec
  Maximum Time Step           :     5.00 sec
  Percent in Steady State     :    -0.00
  Average Iterations per Step :     4.53
  Percent Not Converging      :    32.02
  
  
  ***************************
  Subcatchment Runoff Summary
  ***************************
  
  ------------------------------------------------------------------------------------------------------------------------------
                            Total      Total      Total      Total     Imperv       Perv      Total       Total     Peak  Runoff
                           Precip      Runon       Evap      Infil     Runoff     Runoff     Runoff      Runoff   Runoff   Coeff
  Subcatchment                 mm         mm         mm         mm         mm         mm         mm    10^6 ltr      LPS
  ------------------------------------------------------------------------------------------------------------------------------
  sub0                       7.71       0.00       0.00       0.54       5.91       0.00       5.91        0.00     2.17   0.766
  sub1                       7.71       0.00       0.00       0.85       5.61       0.00       5.61        0.04    11.61   0.727
  sub2                       7.71       0.00       0.00       2.85       3.95       0.00       3.95        0.04    10.31   0.512
  sub3                       7.71       0.00       0.00       2.85       3.92       0.00       3.92        0.09    21.31   0.508
  sub4                       7.71       0.00       0.00       0.85       5.46       0.00       5.46        0.11    24.01   0.708
  sub5                       7.71       0.00       0.00       0.54       5.86       0.00       5.86        0.07    20.66   0.760
  sub7                       7.71       0.00       0.00       0.69       5.77       0.00       5.77        0.02     7.23   0.747
  sub8                       7.71       0.00       0.00       0.69       5.76       0.00       5.76        0.04    12.80   0.746
  sub9                       7.71       0.00       0.00       0.69       5.75       0.00       5.75        0.03     9.49   0.746
  sub10                      7.71       0.00       0.00       0.62       5.81       0.00       5.81        0.06    20.59   0.753
  sub11                      7.71       0.00       0.00       0.62       5.82       0.00       5.82        0.07    24.05   0.755
  sub12                      7.71       0.00       0.00       1.00       5.52       0.00       5.52        0.05    20.16   0.716
  sub14                      7.71       0.00       0.00       0.69       5.75       0.00       5.75        0.05    18.55   0.746
  sub15                      7.71       0.00       0.00       2.31       4.42       0.00       4.42        0.08    25.20   0.573
  sub16                      7.71       0.00       0.00       2.55       4.25       0.00       4.25        0.04    17.78   0.551
  sub17                      7.71       0.00       0.00       2.47       4.31       0.00       4.31        0.04    14.39   0.559
  sub22                      7.71       0.00       0.00       3.32       3.61       0.00       3.61        0.23    82.19   0.468
  sub23                      7.71       0.00       0.00       2.85       3.99       0.00       3.99        0.19    69.97   0.517
  sub60                      7.71       0.00       0.00       0.93       4.17       0.00       4.17        1.26   125.11   0.540
  sub61                      7.71       0.00       0.00       1.31       4.37       0.00       4.37        1.35   155.98   0.566
  sub62                      7.71       0.00       0.00       0.62       4.71       0.00       4.71        1.45   159.69   0.610
  sub63                      7.71       0.00       0.00       2.24       3.86       0.00       3.86        1.17   145.24   0.500
  sub64                      7.71       0.00       0.00       1.16       3.99       0.00       3.99        1.21   118.90   0.517
  sub65                      7.71       0.00       0.00       1.00       4.04       0.00       4.04        1.24   120.72   0.524
  sub66                      7.71       0.00       0.00       2.24       3.46       0.00       3.46        1.06   108.74   0.448
  sub67                      7.71       0.00       0.00       0.62       5.09       0.00       5.09        1.57   203.88   0.660
  sub68                      7.71       0.00       0.00       1.08       4.62       0.00       4.62        1.42   172.19   0.599
  sub69                      7.71       0.00       0.00       1.16       4.91       0.00       4.91        1.15   169.99   0.636
  sub70                      7.71       5.01       0.00       4.33       6.25       0.00       6.25        1.43   142.93   0.491
  sub71                      7.71       0.00       0.00       0.62       4.53       0.00       4.53        1.07   111.70   0.588
  sub72                      7.71       0.00       0.00       0.54       3.35       0.00       3.35        0.68    54.30   0.434
  sub73                      7.71       6.08       0.00       4.69       6.54       0.00       6.54        1.54   124.99   0.474
  sub74                      7.71       0.00       0.00       5.79       1.47       0.00       1.47        0.59    94.63   0.191
  
  
  ******************
  Node Depth Summary
  ******************
  
  ---------------------------------------------------------------------------------
                                 Average  Maximum  Maximum  Time of Max    Reported
                                   Depth    Depth      HGL   Occurrence   Max Depth
  Node                 Type       Meters   Meters   Meters  days hr:min      Meters
  ---------------------------------------------------------------------------------
  WS02001211           JUNCTION     0.68     0.78     5.61     0  04:50        0.78
  WS02001212           JUNCTION     0.40     0.48     5.55     0  04:50        0.48
  WS02001213           JUNCTION     0.64     0.73     5.49     0  04:51        0.73
  WS02003069           JUNCTION     0.46     0.55     5.13     0  02:29        0.55
  WS02003072           JUNCTION     0.52     0.61     4.98     0  02:30        0.61
  WS02003073           JUNCTION     0.32     0.37     4.44     0  02:30        0.37
  WS02003060           JUNCTION     0.41     0.49     5.42     0  02:28        0.49
  WS02003066           JUNCTION     0.25     0.31     5.87     0  02:28        0.31
  WS02003059           JUNCTION     0.70     0.78     5.46     0  04:51        0.78
  WS02003067           JUNCTION     0.60     0.73     6.05     0  02:28        0.73
  WS02004401           JUNCTION     0.71     0.92     6.92     0  02:24        0.92
  WS02004402           JUNCTION     0.74     0.94     6.90     0  02:24        0.94
  WS02004403           JUNCTION     0.76     0.95     6.88     0  02:24        0.95
  WS02004404           JUNCTION     0.83     1.02     6.87     0  02:24        1.02
  WS02004406           JUNCTION     0.83     1.00     6.83     0  02:24        1.00
  WS02004409           JUNCTION     0.53     0.72     6.49     0  02:27        0.72
  WS02004410           JUNCTION     0.54     0.73     6.45     0  02:27        0.73
  WS02004411           JUNCTION     0.56     0.73     6.41     0  02:27        0.73
  WS02004412           JUNCTION     0.57     0.74     6.38     0  02:27        0.74
  WS02004413           JUNCTION     0.73     0.89     6.36     0  02:28        0.89
  WS02004405           JUNCTION     0.83     1.01     6.86     0  02:24        1.01
  WS02006109           JUNCTION     0.79     1.07     7.68     0  02:21        1.06
  WS02006110           JUNCTION     0.78     0.99     7.57     0  02:21        0.99
  WS02006111           JUNCTION     0.23     0.31     7.02     0  02:21        0.31
  WS02006112           JUNCTION     0.88     1.19     7.07     0  02:22        1.18
  WS02006113           JUNCTION     0.36     0.49     7.38     0  02:21        0.49
  WS02006115           JUNCTION     0.60     0.83     6.96     0  02:24        0.82
  WS02006116           JUNCTION     0.68     0.90     6.94     0  02:24        0.90
  WS02006230           JUNCTION     0.78     1.16     7.90     0  02:18        1.13
  WS02006231           JUNCTION     0.53     0.82     7.95     0  02:18        0.79
  WS02006232           JUNCTION     0.67     0.99     8.03     0  02:18        0.90
  WS02006234           JUNCTION     0.60     1.01     8.16     0  02:18        0.83
  WS02006235           JUNCTION     0.63     0.96     8.12     0  02:18        0.85
  WS02006238           JUNCTION     0.66     0.98     8.12     0  02:18        0.88
  WS02006240           JUNCTION     0.56     1.18     8.47     0  02:18        0.81
  WS02006242           JUNCTION     0.62     1.17     8.43     0  02:18        0.86
  WS02006243           JUNCTION     0.51     1.27     8.69     0  02:18        0.74
  WS02006245           JUNCTION     0.48     1.23     8.72     0  02:19        1.02
  WS02006247           JUNCTION     0.50     0.80     8.30     0  02:19        0.72
  WS02006248           JUNCTION     0.44     0.66     8.25     0  02:19        0.64
  WS02006249           JUNCTION     0.47     0.65     8.25     0  02:20        0.65
  WS02006239           JUNCTION     0.62     1.02     8.23     0  02:18        0.86
  WS02006251           JUNCTION     0.46     0.70     8.37     0  02:20        0.68
  WS02006252           JUNCTION     0.42     0.59     8.83     0  04:40        0.59
  WS02006253           JUNCTION     0.49     0.73     8.37     0  02:20        0.72
  WS02006256           JUNCTION     1.07     1.21     8.15     0  02:30        1.21
  WS02004138           JUNCTION     0.16     0.20     7.45     0  00:00        0.19
  WS02004407           JUNCTION     0.24     0.32     6.63     0  02:25        0.32
  WS02006228           JUNCTION     0.80     1.13     7.78     0  02:18        1.12
  WS02006229           JUNCTION     0.78     1.14     7.83     0  02:18        1.13
  WS02006280           JUNCTION     0.06     0.18     8.45     0  02:14        0.18
  WS02006284           JUNCTION     0.36     0.53     8.93     0  02:14        0.53
  WS02006287           JUNCTION     0.09     0.26     9.22     0  02:14        0.26
  WSF200               JUNCTION     0.23     0.33     5.56     0  02:28        0.33
  HS02004901           JUNCTION     0.12     0.27    10.09     0  02:12        0.27
  HS02004881           JUNCTION     0.01     0.03     9.06     0  02:14        0.03
  HS02004876           JUNCTION     0.04     0.11     9.14     0  02:09        0.11
  HS02004870           JUNCTION     0.01     0.05     9.34     0  02:15        0.05
  HS02004862           JUNCTION     0.02     0.06     9.45     0  02:15        0.06
  HS02004856           JUNCTION     0.08     0.12     9.54     0  02:15        0.12
  HS02004852           JUNCTION     0.01     0.04     9.55     0  02:16        0.04
  HS02004848           JUNCTION     0.01     0.04     9.64     0  02:15        0.04
  HS02004842           JUNCTION     0.33     0.37     9.64     0  02:14        0.37
  HS02004837           JUNCTION     0.03     0.06     9.64     0  02:14        0.06
  HS02004830           JUNCTION     0.04     0.07     9.54     0  02:15        0.07
  HS02004824           JUNCTION     0.02     0.05     9.45     0  02:18        0.05
  HS02004817           JUNCTION     0.43     0.57     9.42     0  02:15        0.57
  HS02004807           JUNCTION     0.12     0.24     9.41     0  02:15        0.24
  HS02004802           JUNCTION     0.16     0.28     9.41     0  02:14        0.28
  HS02004799           JUNCTION     0.11     0.32     9.53     0  02:12        0.32
  HS02004792           JUNCTION     0.03     0.13     9.65     0  02:12        0.13
  HS02004788           JUNCTION     0.02     0.10    10.00     0  02:13        0.10
  HS02004785           JUNCTION     0.04     0.17    10.07     0  02:12        0.17
  HS02004777           JUNCTION     0.14     0.29    10.09     0  02:12        0.29
  HS02004770           JUNCTION     0.11     0.26    10.09     0  02:12        0.26
  HS02004480           JUNCTION     0.07     0.25     9.49     0  02:13        0.25
  HS02004479           JUNCTION     0.11     0.29     9.49     0  02:13        0.29
  HS02004478           JUNCTION     0.06     0.17     9.39     0  02:14        0.17
  YS02001745           JUNCTION     0.44     0.70     8.21     0  06:05        0.70
  YS02001748           JUNCTION     0.83     1.34     8.41     0  04:17        1.14
  YS02001751           JUNCTION     1.01     2.07     8.95     0  03:20        1.74
  YS02001754           JUNCTION     1.27     2.01     8.62     0  03:20        1.76
  YS02001762           JUNCTION     1.46     1.86     8.26     0  04:48        1.84
  YS02001765           JUNCTION     1.42     1.82     8.27     0  04:48        1.80
  YS02001767           JUNCTION     1.38     1.79     8.28     0  03:17        1.77
  YS02001770           JUNCTION     1.38     1.89     8.38     0  03:17        1.80
  YS02001774           JUNCTION     1.44     1.97     8.40     0  03:17        1.90
  YS02001779           JUNCTION     1.19     1.68     8.37     0  03:17        1.65
  YS02001882           JUNCTION     0.35     0.60     7.31     0  02:44        0.59
  YS02001884           JUNCTION     0.44     0.69     7.31     0  02:43        0.69
  YS02001759           JUNCTION     1.50     1.89     8.26     0  04:36        1.87
  YS02001887           JUNCTION     0.52     0.77     7.31     0  02:43        0.77
  YS02001890           JUNCTION     0.55     0.80     7.31     0  02:43        0.80
  YS02001898           JUNCTION     0.32     0.56     7.29     0  02:42        0.56
  YS02001901           JUNCTION     0.44     0.69     7.29     0  02:53        0.68
  YS02001904           JUNCTION     0.41     0.66     7.29     0  02:53        0.66
  YS02001907           JUNCTION     0.74     1.00     7.29     0  02:49        1.00
  YS02001910           JUNCTION     0.53     0.78     7.29     0  02:39        0.78
  YS02001915           JUNCTION     0.33     0.57     7.29     0  02:52        0.57
  YS02001918           JUNCTION     0.11     0.22     7.28     0  02:50        0.22
  YS02001619           JUNCTION     0.98     1.61     8.54     0  03:46        1.43
  YS02001629           JUNCTION     1.33     1.83     8.38     0  04:23        1.79
  YS02001641           JUNCTION     1.43     1.87     8.31     0  04:39        1.85
  YS02001644           JUNCTION     1.44     1.87     8.30     0  04:39        1.84
  YS02001652           JUNCTION     1.28     2.09     8.68     0  03:17        1.68
  YS02001655           JUNCTION     1.04     2.20     9.05     0  02:58        1.45
  YS02001920           JUNCTION     0.21     0.29     7.30     0  02:51        0.29
  YS02001923           JUNCTION     0.08     0.11     7.37     0  03:01        0.11
  YS02001926           JUNCTION     0.17     0.21     7.66     0  03:01        0.21
  YS02001929           JUNCTION     0.08     0.11     7.80     0  03:01        0.11
  YS02001658           JUNCTION     0.77     1.46     8.60     0  04:54        1.17
  YS02001661           JUNCTION     0.55     0.87     8.27     0  04:38        0.85
  YS02001664           JUNCTION     0.15     0.38     8.30     0  04:38        0.37
  YS02001622           JUNCTION     1.00     1.59     8.50     0  03:46        1.46
  YS02001633           JUNCTION     1.42     1.90     8.36     0  04:20        1.87
  YS02001649           JUNCTION     1.47     1.93     8.32     0  03:17        1.86
  YS02001757           JUNCTION     1.59     2.01     8.27     0  04:54        1.97
  YS02001895           JUNCTION     0.31     0.55     7.30     0  02:42        0.55
  YS02001625           JUNCTION     1.28     1.78     8.38     0  04:20        1.74
  YS02163301           JUNCTION     1.36     1.85     8.37     0  04:23        1.82
  YS02163601           JUNCTION     1.47     1.93     8.33     0  04:20        1.91
  YS02164001           JUNCTION     1.41     1.86     8.32     0  04:39        1.84
  YS02001647           JUNCTION     1.27     1.71     8.32     0  03:00        1.64
  YSB1154              JUNCTION     0.25     0.44     9.50     0  02:13        0.44
  YSB6556              JUNCTION     0.14     0.33     9.49     0  02:13        0.33
  YSB1174              JUNCTION     0.20     0.39     9.50     0  02:13        0.39
  YSB1171              JUNCTION     0.40     0.59     9.50     0  02:13        0.59
  YS02006553           JUNCTION     0.75     1.02     7.31     0  02:53        1.00
  YS02006561           JUNCTION     0.17     0.32     6.98     0  02:53        0.31
  YS02006556           JUNCTION     0.72     0.98     7.29     0  02:56        0.97
  YS02006558           JUNCTION     0.76     1.03     7.29     0  02:50        1.01
  YS02001783           JUNCTION     0.30     0.55     6.69     0  02:45        0.55
  YS02001784           JUNCTION     0.33     0.56     6.63     0  02:45        0.56
  YS02001786           JUNCTION     0.28     0.47     6.50     0  02:46        0.47
  YS02001788           JUNCTION     0.21     0.37     6.35     0  02:46        0.37
  YS02001790           JUNCTION     0.26     0.44     6.09     0  02:46        0.44
  YS02001791           JUNCTION     0.18     0.61     6.08     0  03:50        0.61
  YS02001793           JUNCTION     0.16     2.36     7.20     0  03:37        1.24
  WS02004139           JUNCTION     0.62     0.72     5.63     0  04:50        0.72
  WSC                  OUTFALL      0.31     0.37     1.04     0  02:30        0.37
  3                    OUTFALL      0.10     0.21     6.21     0  02:30        0.21
  4                    OUTFALL      0.04     0.15     7.15     0  02:20        0.15
  5                    OUTFALL      0.00     0.00     5.00     0  00:00        0.00
  JK-storage           STORAGE      1.14     5.27     6.07     0  03:50        5.26
  CC-storage           STORAGE      0.82     1.20     8.20     0  06:05        1.20
  XR-storage           STORAGE      6.80     7.72     5.72     0  02:32        7.72
  
  
  *******************
  Node Inflow Summary
  *******************
  
  -------------------------------------------------------------------------------------------------
                                  Maximum  Maximum                  Lateral       Total        Flow
                                  Lateral    Total  Time of Max      Inflow      Inflow     Balance
                                   Inflow   Inflow   Occurrence      Volume      Volume       Error
  Node                 Type           LPS      LPS  days hr:min    10^6 ltr    10^6 ltr     Percent
  -------------------------------------------------------------------------------------------------
  WS02001211           JUNCTION      7.35   386.41     0  04:50       0.207        6.96       0.417
  WS02001212           JUNCTION      0.00   385.06     0  04:50           0        6.93       0.249
  WS02001213           JUNCTION      0.00   383.99     0  04:50           0        6.91       0.341
  WS02003069           JUNCTION      0.32   848.66     0  02:29     0.00902        15.3       0.193
  WS02003072           JUNCTION      0.00   848.51     0  02:29           0        15.3       0.241
  WS02003073           JUNCTION      1.82   850.24     0  02:30      0.0514        15.3       0.271
  WS02003060           JUNCTION     16.53   848.54     0  02:42       0.466        15.3       0.183
  WS02003066           JUNCTION      0.00   608.70     0  02:28           0        8.03       0.060
  WS02003059           JUNCTION      0.00   382.66     0  04:51           0        6.89       0.499
  WS02003067           JUNCTION      0.00   608.59     0  02:28           0        8.04       0.124
  WS02004401           JUNCTION      0.00   616.48     0  02:23           0        8.29       0.269
  WS02004402           JUNCTION      0.00   615.44     0  02:24           0        8.27       0.253
  WS02004403           JUNCTION      0.00   614.45     0  02:25           0        8.25       0.229
  WS02004404           JUNCTION      0.16   615.27     0  02:24     0.00457        8.23       0.172
  WS02004406           JUNCTION      0.00   614.91     0  02:25           0         8.2       0.419
  WS02004409           JUNCTION      0.00   614.32     0  02:25           0        8.16       0.221
  WS02004410           JUNCTION      0.00   610.84     0  02:27           0        8.14       0.247
  WS02004411           JUNCTION      0.00   609.59     0  02:27           0        8.12       0.253
  WS02004412           JUNCTION      0.00   608.99     0  02:27           0         8.1       0.271
  WS02004413           JUNCTION      0.00   608.82     0  02:28           0        8.08       0.396
  WS02004405           JUNCTION      0.04   616.34     0  02:24     0.00107        8.22       0.257
  WS02006109           JUNCTION      1.23   620.18     0  02:19      0.0347        8.38       0.258
  WS02006110           JUNCTION      0.00   620.07     0  02:19           0        8.36       0.237
  WS02006111           JUNCTION      0.00   646.03     0  02:19           0        8.33       0.054
  WS02006112           JUNCTION     14.39   635.28     0  02:20       0.037        8.36       0.353
  WS02006113           JUNCTION      0.00   622.27     0  02:19           0        8.34       0.119
  WS02006115           JUNCTION      0.00   650.22     0  02:19           0        8.33       0.253
  WS02006116           JUNCTION      0.00   620.77     0  02:22           0        8.31       0.241
  WS02006230           JUNCTION     10.28   399.12     0  04:02        0.29         7.2       0.196
  WS02006231           JUNCTION      0.00   389.34     0  04:01           0        6.92       0.149
  WS02006232           JUNCTION      0.00   389.34     0  04:01           0        6.93       0.232
  WS02006234           JUNCTION      0.00   390.63     0  04:42           0        6.94       0.117
  WS02006235           JUNCTION      0.00   390.61     0  04:41           0        6.98       0.150
  WS02006238           JUNCTION      0.00   316.74     0  07:30           0        5.09       0.149
  WS02006240           JUNCTION      0.00   317.05     0  06:12           0        5.08       0.227
  WS02006242           JUNCTION      0.00   326.98     0  06:11           0        5.09       0.284
  WS02006243           JUNCTION      0.00   335.43     0  06:11           0        5.08      -0.078
  WS02006245           JUNCTION      0.00   342.01     0  06:11           0        5.09       0.220
  WS02006247           JUNCTION      0.00   350.27     0  02:17           0        5.09       0.137
  WS02006248           JUNCTION      0.00   357.14     0  02:17           0         5.1       0.076
  WS02006249           JUNCTION      0.00   463.89     0  02:20           0        5.81       0.180
  WS02006239           JUNCTION      0.00   316.40     0  07:30           0        5.09       0.226
  WS02006251           JUNCTION      0.08   466.74     0  02:20     0.00217        5.85       0.156
  WS02006252           JUNCTION      0.00   400.00     0  02:50           0         5.6       0.008
  WS02006253           JUNCTION      2.17    65.80     0  02:14     0.00478       0.243       1.505
  WS02006256           JUNCTION      0.00   600.00     0  03:00           0        5.85       0.049
  WS02004138           JUNCTION      0.00   380.00     0  00:00           0        6.78       0.075
  WS02004407           JUNCTION      0.00   614.42     0  02:25           0        8.16       0.097
  WS02006228           JUNCTION      0.00   619.00     0  02:19           0        8.36       0.181
  WS02006229           JUNCTION      0.00   621.45     0  02:19           0        8.38       0.165
  WS02006280           JUNCTION      0.00   325.60     0  02:14           0        1.19       0.006
  WS02006284           JUNCTION      0.10   325.57     0  02:14      0.0027        1.19       0.095
  WS02006287           JUNCTION      0.00   325.40     0  02:14           0        1.19       0.061
  WSF200               JUNCTION      0.00   608.75     0  02:28           0        8.03       0.062
  HS02004901           JUNCTION     17.78    17.78     0  02:08      0.0445      0.0446       4.100
  HS02004881           JUNCTION      7.23    64.15     0  02:14      0.0194       0.207       0.191
  HS02004876           JUNCTION     11.61    57.11     0  02:14      0.0373       0.188       0.285
  HS02004870           JUNCTION     12.80    45.72     0  02:14      0.0367       0.151       0.070
  HS02004862           JUNCTION     10.51    33.74     0  02:15      0.0425       0.115       0.147
  HS02004856           JUNCTION      9.49    23.30     0  02:14      0.0277      0.0735       2.000
  HS02004852           JUNCTION      0.00    14.38     0  02:15           0      0.0459       0.114
  HS02004848           JUNCTION     21.31    21.31     0  02:17      0.0881      0.0881       0.049
  HS02004842           JUNCTION      0.00     7.73     0  02:27           0      0.0553      30.767
  HS02004837           JUNCTION     26.94    33.22     0  02:14       0.243       0.285       0.285
  HS02004830           JUNCTION      0.15    33.34     0  02:14     0.00423       0.276       0.450
  HS02004824           JUNCTION     24.06    57.11     0  02:17       0.115        0.39       0.138
  HS02004817           JUNCTION      0.60    57.70     0  02:18      0.0169       0.406       4.279
  HS02004807           JUNCTION     24.05    79.71     0  02:16      0.0676       0.457       0.933
  HS02004802           JUNCTION      0.00    80.31     0  02:17           0       0.453       0.904
  HS02004799           JUNCTION     18.55   209.66     0  02:12      0.0547       0.642       0.358
  HS02004792           JUNCTION     82.47   191.41     0  02:12       0.236       0.588       0.069
  HS02004788           JUNCTION     26.87   111.23     0  02:12       0.123       0.353       0.110
  HS02004785           JUNCTION      0.15    84.71     0  02:12     0.00423       0.232       0.210
  HS02004777           JUNCTION      0.03    85.09     0  02:10    0.000846       0.232       2.282
  HS02004770           JUNCTION     69.97    86.36     0  02:10        0.19       0.233       1.345
  HS02004480           JUNCTION      0.00   247.45     0  02:12           0       0.753       0.103
  HS02004479           JUNCTION      0.00    38.52     0  02:14           0       0.124       0.593
  HS02004478           JUNCTION      0.00   325.38     0  02:14           0        1.19       0.050
  YS02001745           JUNCTION    125.11   226.15     0  04:11        1.26        1.31       0.390
  YS02001748           JUNCTION      0.04   290.82     0  03:11     0.00127        1.32       1.259
  YS02001751           JUNCTION      0.01   352.45     0  03:11     0.00031        1.26       1.778
  YS02001754           JUNCTION      0.26   214.89     0  02:58     0.00733        1.23       1.885
  YS02001762           JUNCTION      0.00   179.67     0  02:59           0        1.38       1.523
  YS02001765           JUNCTION      0.00   179.69     0  02:59           0        1.38       1.754
  YS02001767           JUNCTION      0.54   182.13     0  02:29      0.0151         1.4       2.611
  YS02001770           JUNCTION    159.84   182.15     0  02:35        1.45        1.47       2.166
  YS02001774           JUNCTION      0.00    58.60     0  02:11           0       0.075      49.716
  YS02001779           JUNCTION      0.01    50.36     0  02:35    0.000141      0.0309      83.077
  YS02001882           JUNCTION      0.00    12.04     0  02:44           0     0.00988      23.372
  YS02001884           JUNCTION      0.00    17.22     0  02:09           0      0.0339      18.476
  YS02001759           JUNCTION    156.02   331.36     0  02:59        1.35        2.69       0.845
  YS02001887           JUNCTION    204.33   213.00     0  02:43        1.58         1.6       0.477
  YS02001890           JUNCTION      0.00   212.19     0  02:44           0        1.57       0.532
  YS02001898           JUNCTION      0.00   212.56     0  02:42           0        1.56       0.165
  YS02001901           JUNCTION      0.00   218.63     0  02:42           0        1.55       0.385
  YS02001904           JUNCTION      0.00   218.98     0  02:53           0        1.55       0.357
  YS02001907           JUNCTION      0.00   406.88     0  02:44           0        3.37       0.680
  YS02001910           JUNCTION      0.00   187.55     0  02:52           0        1.82       0.590
  YS02001915           JUNCTION    111.72   176.78     0  02:52        1.07        1.83       0.278
  YS02001918           JUNCTION      0.00    60.05     0  03:00           0        0.76       0.184
  YS02001619           JUNCTION    108.74   108.74     0  02:51        1.06        1.06       1.068
  YS02001629           JUNCTION      0.00   196.66     0  03:07           0       0.988       2.664
  YS02001641           JUNCTION      0.00   267.49     0  02:28           0        2.14       0.976
  YS02001644           JUNCTION    118.94   376.65     0  02:28        1.21        3.32       0.783
  YS02001652           JUNCTION      0.00   229.54     0  02:30           0        1.13       2.000
  YS02001655           JUNCTION      0.15   423.06     0  03:00     0.00434        1.16       1.897
  YS02001920           JUNCTION      2.87    57.17     0  03:01      0.0809       0.762       0.311
  YS02001923           JUNCTION      0.04    54.30     0  03:01     0.00106       0.682       0.056
  YS02001926           JUNCTION      0.05    54.34     0  03:01     0.00147       0.683       0.386
  YS02001929           JUNCTION     54.30    54.30     0  03:01       0.682       0.682       0.054
  YS02001658           JUNCTION      0.00   382.08     0  03:44           0         1.3       0.830
  YS02001661           JUNCTION      0.00   327.19     0  03:51           0        1.57       0.555
  YS02001664           JUNCTION    145.24   214.35     0  04:38        1.17        1.44       0.098
  YS02001622           JUNCTION      0.00   160.27     0  02:37           0        1.05       3.047
  YS02001633           JUNCTION    120.92   278.94     0  02:27        1.25         2.2       1.434
  YS02001649           JUNCTION      0.00   549.02     0  02:58           0        4.36       0.849
  YS02001757           JUNCTION      0.00   967.88     0  02:40           0        8.16       1.127
  YS02001895           JUNCTION      0.00   211.59     0  02:41           0        1.56       0.266
  YS02001625           JUNCTION      0.00   196.54     0  03:07           0        1.02       3.971
  YS02163301           JUNCTION      0.00   175.68     0  02:27           0       0.979       2.464
  YS02163601           JUNCTION      0.11   269.48     0  02:27      0.0031        2.15       1.393
  YS02164001           JUNCTION      0.00   267.11     0  02:27           0        2.13       0.911
  YS02001647           JUNCTION      0.00   377.96     0  02:29           0        3.28       0.817
  YSB1154              JUNCTION     20.66    20.66     0  02:12      0.0664      0.0677       2.179
  YSB6556              JUNCTION      0.00    20.68     0  02:14           0      0.0686       1.854
  YSB1174              JUNCTION     20.16    20.16     0  02:07      0.0482      0.0492       2.678
  YSB1171              JUNCTION      0.00    38.48     0  02:13           0       0.123       5.405
  YS02006553           JUNCTION      0.00   400.56     0  02:42           0        3.36       0.438
  YS02006561           JUNCTION      0.00   595.45     0  02:44           0        4.75      -0.002
  YS02006556           JUNCTION      0.00   392.94     0  02:56           0        3.36       0.318
  YS02006558           JUNCTION    173.07   584.72     0  02:44        1.45        4.78       0.116
  YS02001783           JUNCTION      0.00   561.12     0  02:53           0        4.75       0.038
  YS02001784           JUNCTION      1.06   556.06     0  02:45      0.0299        4.78       0.061
  YS02001786           JUNCTION      0.06   550.83     0  02:45     0.00159        4.77       0.060
  YS02001788           JUNCTION      0.07   549.03     0  02:46       0.002        4.77       0.034
  YS02001790           JUNCTION      0.15   548.94     0  02:46     0.00437        4.78       0.043
  YS02001791           JUNCTION      0.00   547.58     0  02:46           0        4.77       0.022
  YS02001793           JUNCTION      0.00   547.77     0  02:46           0        4.78       0.004
  WS02004139           JUNCTION      0.32   393.28     0  00:00     0.00905        6.79       0.509
  WSC                  OUTFALL       0.00   850.35     0  02:30           0        15.3       0.000
  3                    OUTFALL       0.00   519.85     0  02:30           0        3.93       0.000
  4                    OUTFALL       0.00   212.26     0  02:20           0       0.698       0.000
  5                    OUTFALL       0.00     0.00     0  00:00           0           0       0.000 ltr
  JK-storage           STORAGE       0.00   805.80     0  03:36           0        4.93     -15.871
  CC-storage           STORAGE       0.00   968.03     0  02:40           0        8.06       0.411
  XR-storage           STORAGE     402.22   402.22     0  02:49        7.77        8.37      -0.000
  
  
  **********************
  Node Surcharge Summary
  **********************
  
  Surcharging occurs when water rises above the top of the highest conduit.
  ---------------------------------------------------------------------
                                               Max. Height   Min. Depth
                                   Hours       Above Crown    Below Rim
  Node                 Type      Surcharged         Meters       Meters
  ---------------------------------------------------------------------
  WS02004404           JUNCTION        0.15          0.019        2.761
  WS02004405           JUNCTION        0.08          0.007        2.793
  WS02006109           JUNCTION        2.91          0.246        1.574
  WS02006110           JUNCTION        0.40          0.078        1.772
  WS02006112           JUNCTION        0.81          0.190        1.490
  WS02006230           JUNCTION        0.16          0.076        1.494
  WS02006231           JUNCTION        0.23          0.114        1.416
  WS02006232           JUNCTION        3.28          0.288        1.192
  WS02006234           JUNCTION        0.72          0.287        0.953
  WS02006235           JUNCTION        2.06          0.246        1.044
  WS02006238           JUNCTION        2.70          0.260        1.170
  WS02006240           JUNCTION        0.55          0.470        0.920
  WS02006242           JUNCTION        2.08          0.436        0.384
  WS02006243           JUNCTION        0.10          0.560        0.210
  WS02006245           JUNCTION        0.01          0.522        0.328
  WS02006247           JUNCTION        0.01          0.092        0.668
  WS02006239           JUNCTION        0.77          0.284        1.006
  WS02006252           JUNCTION        3.46          0.193        0.907
  WS02006228           JUNCTION        2.66          0.301        1.899
  YS02001748           JUNCTION        1.83          0.257        0.933
  YS02001751           JUNCTION        4.22          1.073        0.127
  YS02001754           JUNCTION        5.11          0.957        0.193
  YS02001762           JUNCTION        5.47          0.862        0.288
  YS02001765           JUNCTION        5.44          0.817        0.283
  YS02001767           JUNCTION        5.33          0.788        0.242
  YS02001770           JUNCTION        5.27          0.859        0.061
  YS02001774           JUNCTION        5.47          0.974        0.076
  YS02001779           JUNCTION        5.04          0.680        0.000
  YS02001759           JUNCTION        5.49          0.895        0.315
  YS02001619           JUNCTION        3.75          0.610        0.000
  YS02001629           JUNCTION        3.78          0.452        0.018
  YS02001641           JUNCTION        5.46          0.871        0.229
  YS02001644           JUNCTION        5.46          0.867        0.053
  YS02001652           JUNCTION        5.20          1.058        0.072
  YS02001655           JUNCTION        4.35          1.200        0.000
  YS02001658           JUNCTION        1.48          0.461        0.839
  YS02001622           JUNCTION        4.00          0.592        0.028
  YS02001633           JUNCTION        5.42          0.884        0.176
  YS02001649           JUNCTION        5.47          0.928        0.122
  YS02001757           JUNCTION        5.53          1.006        0.204
  YS02001625           JUNCTION        5.23          0.780        0.000
  YS02163301           JUNCTION        5.33          0.855        0.175
  YS02163601           JUNCTION        5.47          0.934        0.146
  YS02164001           JUNCTION        5.43          0.858        0.242
  YS02001647           JUNCTION        5.22          0.710        0.190
  YS02006553           JUNCTION        0.02          0.022        1.168
  YS02001793           JUNCTION        0.26          1.364        1.236
  
  
  *********************
  Node Flooding Summary
  *********************
  
  Flooding refers to all water that overflows a node, whether it ponds or not.
  --------------------------------------------------------------------------
                                                             Total   Maximum
                                 Maximum   Time of Max       Flood    Ponded
                        Hours       Rate    Occurrence      Volume     Depth
  Node                 Flooded       LPS   days hr:min    10^6 ltr    Meters
  --------------------------------------------------------------------------
  YS02001779              0.01      4.12      0  03:17       0.000     0.000
  YS02001619              0.01     14.33      0  03:47       0.000     0.000
  YS02001655              0.01    184.92      0  02:59       0.001     0.000
  YS02001625              0.01      2.22      0  04:20       0.000     0.000
  XR-storage              1.19    307.08      0  02:50       0.761     0.000
  
  
  **********************
  Storage Volume Summary
  **********************
  
  --------------------------------------------------------------------------------------------------
                         Average     Avg  Evap Exfil       Maximum     Max    Time of Max    Maximum
                          Volume    Pcnt  Pcnt  Pcnt        Volume    Pcnt     Occurrence    Outflow
  Storage Unit           1000 m3    Full  Loss  Loss       1000 m3    Full    days hr:min        LPS
  --------------------------------------------------------------------------------------------------
  JK-storage               0.057      20     0     0         0.265      91       0  03:50     600.00
  CC-storage               2.298      15     0     0         3.340      21       0  06:05     400.00
  XR-storage               0.816      88     0     0         0.926     100       0  02:32     380.00
  
  
  ***********************
  Outfall Loading Summary
  ***********************
  
  -----------------------------------------------------------
                         Flow       Avg       Max       Total
                         Freq      Flow      Flow      Volume
  Outfall Node           Pcnt       LPS       LPS    10^6 ltr
  -----------------------------------------------------------
  WSC                   99.99    638.90    850.35      15.272
  3                     90.72    210.11    519.85       3.933
  4                     57.79     53.65    212.26       0.698
  5                      0.00      0.00      0.00       0.000
  -----------------------------------------------------------
  System                62.13    902.65   1407.73      19.903
  
  
  ********************
  Link Flow Summary
  ********************
  
  -----------------------------------------------------------------------------
                                 Maximum  Time of Max   Maximum    Max/    Max/
                                  |Flow|   Occurrence   |Veloc|    Full    Full
  Link                 Type          LPS  days hr:min     m/sec    Flow   Depth
  -----------------------------------------------------------------------------
  WS02003066WSF200     CONDUIT    608.75     0  02:28      2.79    0.10    0.25
  WS02006287WS02006284 CONDUIT    325.47     0  02:14      1.89    0.15    0.27
  WS02006284WS02006280 CONDUIT    325.60     0  02:14      2.13    0.14    0.25
  WS02006280WS02006229 CONDUIT    325.60     0  02:14      3.43    0.07    0.18
  WS02006229WS02006228 CONDUIT    619.00     0  02:19      1.23    2.05    1.00
  WS02006256WS02006235 CONDUIT    166.25     0  00:01      2.58    1.76    1.00
  WS02006253WS02006251 CONDUIT     81.42     0  02:20      0.58    0.24    1.00
  WS02006252WS02006251 CONDUIT    400.44     0  06:10      3.19    1.47    1.00
  WS02006251WS02006249 CONDUIT    463.89     0  02:20      1.23    1.34    0.96
  WS02006249WS02006248 CONDUIT    357.14     0  02:17      1.20    1.96    0.91
  WS02006248WS02006247 CONDUIT    350.27     0  02:17      1.17    0.76    0.97
  WS02006247WS02006245 CONDUIT    342.01     0  06:11      1.13    2.71    1.00
  WS02006245WS02006243 CONDUIT    335.43     0  06:11      1.17    0.99    1.00
  WS02006243WS02006242 CONDUIT    326.98     0  06:11      0.96    0.70    1.00
  WS02006242WS02006240 CONDUIT    317.05     0  06:12      0.87    1.26    1.00
  WS02006240WS02006239 CONDUIT    316.40     0  07:30      0.87    1.00    1.00
  WS02006239WS02006238 CONDUIT    316.74     0  07:30      0.84    1.01    1.00
  WS02006238WS02006235 CONDUIT    316.82     0  07:30      1.25    0.71    1.00
  WS02006235WS02006234 CONDUIT    390.63     0  04:42      1.04    4.12    1.00
  WS02006234WS02006232 CONDUIT    389.34     0  04:01      1.13    0.79    1.00
  WS02006232WS02006231 CONDUIT    389.34     0  04:01      1.06    0.82    1.00
  WS02006231WS02006230 CONDUIT    388.84     0  04:02      1.35    5.90    1.00
  WS02006230WS02006229 CONDUIT    398.86     0  04:02      1.04    8.88    1.00
  WS02006228WS02006109 CONDUIT    618.95     0  02:19      1.23    2.70    1.00
  WS02006116WS02004401 CONDUIT    616.48     0  02:23      0.85    0.85    0.91
  WS02006115WS02006116 CONDUIT    620.77     0  02:22      0.96    0.80    0.83
  WS02006113WS02006111 CONDUIT    646.03     0  02:19      2.58    0.77    0.50
  WS02006112WS02006115 CONDUIT    650.22     0  02:19      0.90    0.38    0.91
  WS02006111WS02006112 CONDUIT    624.55     0  02:20      1.70    0.30    0.69
  WS02006110WS02006113 CONDUIT    622.27     0  02:19      1.43    0.57    0.81
  WS02006109WS02006110 CONDUIT    620.07     0  02:19      1.23    1.19    1.00
  WS02004411WS02004412 CONDUIT    608.99     0  02:27      0.99    0.87    0.73
  WS02004401WS02004402 CONDUIT    615.44     0  02:24      0.81    0.74    0.93
  WS02004413WS02003067 CONDUIT    608.59     0  02:28      1.19    0.26    0.62
  WS02004412WS02004413 CONDUIT    608.82     0  02:28      0.89    0.41    0.81
  WS02004410WS02004411 CONDUIT    609.59     0  02:27      1.00    0.83    0.73
  WS02004409WS02004410 CONDUIT    610.84     0  02:27      1.04    0.79    0.72
  WS02004407WS02004409 CONDUIT    614.32     0  02:25      1.58    0.22    0.52
  WS02004406WS02004407 CONDUIT    614.42     0  02:25      1.12    0.27    0.66
  WS02004405WS02004406 CONDUIT    614.91     0  02:25      0.78    1.21    1.00
  WS02004404WS02004405 CONDUIT    616.31     0  02:24      0.84    6.04    1.00
  WS02004403WS02004404 CONDUIT    615.11     0  02:24      0.79    0.44    0.97
  WS02004402WS02004403 CONDUIT    614.45     0  02:25      0.80    0.88    0.94
  WS02004139WS02001211 CONDUIT    379.06     0  04:50      0.90    0.48    0.58
  WS02004138WS02004139 CONDUIT    392.96     0  00:00      3.64    0.08    0.43
  WS02003067WS02003066 CONDUIT    608.70     0  02:28      1.29    0.20    0.43
  WS02001213WS02003059 CONDUIT    382.66     0  04:51      0.90    0.63    0.74
  WS02001212WS02001213 CONDUIT    383.99     0  04:50      1.31    0.59    0.45
  WS02001211WS02001212 CONDUIT    385.06     0  04:50      0.78    0.29    0.63
  WS02003072WS02003073 CONDUIT    848.42     0  02:30      1.67    1.83    0.46
  WS02003069WS02003072 CONDUIT    848.51     0  02:29      1.57    0.41    0.48
  WS02003060WS02003069 CONDUIT    848.34     0  02:29      1.82    0.33    0.43
  WS02003059WS02003060 CONDUIT    381.30     0  04:51      0.93    0.25    0.62
  HS02004901HS02004770 CONDUIT     16.74     0  02:11      0.06    0.06    0.38
  HS02004876HS02004881 CONDUIT     57.46     0  02:14      0.83    0.61    0.10
  HS02004870HS02004876 CONDUIT     45.69     0  02:15      0.57    0.03    0.12
  HS02004842HS02004848 CONDUIT      7.73     0  02:27      0.04    0.00    0.29
  HS02004837HS02004842 CONDUIT      8.03     0  02:27      0.41    0.00    0.30
  HS02004830HS02004837 CONDUIT     33.19     0  02:14      0.51    0.03    0.09
  HS02004824HS02004830 CONDUIT     33.34     0  02:15      0.55    0.04    0.09
  HS02004817HS02004824 CONDUIT     57.10     0  02:18      0.19    0.03    0.44
  HS02004770HS02004777 CONDUIT     85.06     0  02:10      0.31    0.16    0.40
  HS02004799HS02004480 CONDUIT    209.37     0  02:12      0.75    0.26    0.40
  HS02004792HS02004799 CONDUIT    191.28     0  02:12      0.86    0.12    0.32
  HS02004788HS02004792 CONDUIT    111.14     0  02:13      0.98    0.07    0.16
  HS02004785HS02004788 CONDUIT     84.61     0  02:12      0.64    0.64    0.19
  HS02004777HS02004785 CONDUIT     84.56     0  02:12      0.37    0.10    0.33
  HS02004480HS02004478 CONDUIT    247.36     0  02:13      1.16    1.04    0.30
  HS02004479HS02004480 CONDUIT     38.86     0  02:15      0.16    0.04    0.39
  HS02004862HS02004870 CONDUIT     33.69     0  02:15      0.57    0.04    0.08
  HS02004848HS02004852 CONDUIT     14.38     0  02:15      0.39    0.02    0.05
  HS02004856HS02004862 CONDUIT     23.25     0  02:15      0.42    0.02    0.08
  HS02004852HS02004856 CONDUIT     14.34     0  02:16      0.19    0.02    0.11
  HS02004802HS02004478 CONDUIT     81.01     0  02:17      0.37    0.07    0.32
  HS02004478WS02006287 CONDUIT    325.40     0  02:14      1.59    0.09    0.23
  HS02004817HS02004807 CONDUIT     58.69     0  02:19      0.15    0.03    0.58
  HS02004807HS02004802 CONDUIT     80.31     0  02:17      0.32    0.15    0.37
  YS02001759YS02001757 CONDUIT    333.12     0  02:59      0.42    0.24    1.00
  YS02001762YS02001759 CONDUIT    180.83     0  02:59      0.23    0.21    1.00
  YS02001765YS02001762 CONDUIT    179.67     0  02:59      0.23    0.17    1.00
  YS02001770YS02001767 CONDUIT    181.60     0  02:29      0.32    0.72    1.00
  YS02001774YS02001770 CONDUIT     58.60     0  02:11      0.14    0.04    1.00
  YS02001779YS02001774 CONDUIT     50.36     0  02:35      0.09    0.03    1.00
  YS02001649YS02001757 CONDUIT    549.59     0  02:58      0.70    0.33    1.00
  YS02001767YS02001765 CONDUIT    179.69     0  02:59      0.26    0.23    1.00
  YS02006561YS02001783 CONDUIT    561.12     0  02:53      2.07    0.29    0.54
  YS02001783YS02001784 CONDUIT    555.00     0  02:45      1.50    0.77    0.69
  YS02001784YS02001785 CONDUIT    550.78     0  02:45      1.60    1.28    0.65
  YS02001788YS02001790 CONDUIT    548.78     0  02:46      2.15    0.40    0.51
  YS02001790YS02001791 CONDUIT    547.58     0  02:46      2.48    0.60    0.65
  YS02001791YS02001793 CONDUIT    547.77     0  02:46      5.20    0.24    0.88
  YS02001910YS02001907 CONDUIT    189.46     0  02:53      0.49    0.11    0.89
  YS02001786YS02001788 CONDUIT    548.96     0  02:46      2.05    1.06    0.53
  YS02001915YS02001910 CONDUIT    187.55     0  02:52      0.45    0.09    0.67
  YS02001918YS02001915 CONDUIT     65.13     0  02:52      0.44    0.04    0.39
  YS02001923YS02001920 CONDUIT     54.30     0  03:01      0.55    0.02    0.20
  YS02001926YS02001923 CONDUIT     54.27     0  03:01      0.61    0.08    0.17
  YS02001929YS02001926 CONDUIT     54.28     0  03:01      0.66    0.03    0.16
  YS02001920YS02001918 CONDUIT     60.05     0  03:00      0.55    0.06    0.25
  YS02001629YS02163301 CONDUIT    175.68     0  02:27      0.22    0.22    1.00
  YS02001619YS02001622 CONDUIT    160.27     0  02:37      0.75    0.24    1.00
  YS02001622YS02001625 CONDUIT    196.54     0  03:07      0.31    0.10    1.00
  YS02001625YS02001629 CONDUIT    196.66     0  03:07      0.31    0.09    1.00
  YS02163301YS02001633 CONDUIT    172.31     0  02:27      0.22    0.16    1.00
  YS02163601YS02164001 CONDUIT    267.11     0  02:27      0.34    0.24    1.00
  YS02164001YS02001641 CONDUIT    267.49     0  02:28      0.34    0.37    1.00
  YS02001641YS02001644 CONDUIT    270.86     0  02:28      0.34    0.88    1.00
  YS02001647YS02001649 CONDUIT    402.47     0  02:29      0.53    0.21    1.00
  YS02006553YS02006556 CONDUIT    392.94     0  02:56      0.51    0.34    0.97
  YS02006556YS02006558 CONDUIT    412.22     0  02:44      0.53    0.33    0.99
  YSB6556YSB1171       CONDUIT     21.09     0  02:15      0.08    0.02    0.66
  YS02001907YS02006553 CONDUIT    400.56     0  02:42      0.45    0.47    1.00
  YS02006558YS02006561 CONDUIT    595.45     0  02:44      2.95    1.32    0.68
  YS02001633YS02163601 CONDUIT    269.37     0  02:27      0.34    0.28    1.00
  YS02001644YS02001647 CONDUIT    377.96     0  02:29      0.50    0.22    1.00
  YS02001745YS02001748 CONDUIT    289.21     0  04:11      1.57    0.11    0.85
  YS02001748YS02001751 CONDUIT    352.44     0  03:11      1.22    0.18    1.00
  YS02001751YS02001754 CONDUIT    214.63     0  02:58      1.05    0.10    1.00
  YS02001754YS02001757 CONDUIT    218.02     0  02:58      0.33    0.09    1.00
  YS02001882YS02001884 CONDUIT     12.04     0  02:44      0.06    0.01    0.61
  YS02001884YS02001887 CONDUIT     17.22     0  02:09      0.07    0.02    0.71
  YS02001890YS02001895 CONDUIT    211.59     0  02:41      0.38    0.10    0.67
  YS02001895YS02001898 CONDUIT    212.56     0  02:42      0.52    0.37    0.54
  YS02001898YS02001901 CONDUIT    218.63     0  02:42      0.43    0.14    0.62
  YS02001901YS02001904 CONDUIT    218.98     0  02:53      0.40    0.34    0.67
  YS02001904YS02001907 CONDUIT    228.29     0  02:44      0.33    0.08    0.83
  YS02001887YS02001890 CONDUIT    212.19     0  02:44      0.33    0.36    0.76
  YS02001652YS02001649 CONDUIT    233.51     0  02:30      0.36    0.12    1.00
  YS02001655YS02001652 CONDUIT    229.54     0  02:30      1.12    0.11    1.00
  YS02001658YS02001655 CONDUIT    422.91     0  03:00      1.41    0.18    1.00
  YS02001661YS02001658 CONDUIT    382.08     0  03:44      1.65    0.15    0.90
  YS02001664YS02001661 CONDUIT    250.08     0  04:38      1.41    0.08    0.55
  YSB1154YSB6556       CONDUIT     20.68     0  02:14      0.19    0.04    0.55
  YSB1174YSB1171       CONDUIT     18.77     0  02:08      0.07    0.03    0.66
  YSB1171HS02004479    CONDUIT     38.52     0  02:14      0.54    0.03    0.52
  HS02004881HS02006253 CONDUIT     64.11     0  02:14      2.01    0.01    0.30
  YS02001793JiankangQianchi CONDUIT    805.80     0  03:36     15.23    0.06    1.00
  YS02001757CaochengTiaoxuchi CONDUIT    968.03     0  02:40      2.26    0.43    1.00
  WSF200WS02003060     CONDUIT    608.80     0  02:29      1.82    0.14    0.34
  1                    CONDUIT    850.35     0  02:30      3.18    0.30    0.37
  2                    CONDUIT    212.26     0  02:20      5.93    0.51    0.51
  3                    CONDUIT    519.85     0  02:30      9.86    0.83    0.70
  4                    CONDUIT      0.00     0  00:00      0.00    0.00    0.00
  CC-Pump-1            PUMP       200.00     0  02:20              1.00
  CC-Pump-2            PUMP       200.00     0  02:14              1.00
  JK-Pump-1            PUMP       300.00     0  02:30              1.00
  JK-Pump-2            PUMP       300.00     0  00:00              1.00
  XR-Pump-1            PUMP        95.00     0  00:00              1.00
  XR-Pump-2            PUMP        95.00     0  00:00              1.00
  XR-Pump-3            PUMP        95.00     0  00:00              1.00
  XR-Pump-4            PUMP        95.00     0  00:00              1.00
  
  
  ***************************
  Flow Classification Summary
  ***************************
  
  -------------------------------------------------------------------------------------
                      Adjusted    ---------- Fraction of Time in Flow Class ---------- 
                       /Actual         Up    Down  Sub   Sup   Up    Down  Norm  Inlet 
  Conduit               Length    Dry  Dry   Dry   Crit  Crit  Crit  Crit  Ltd   Ctrl  
  -------------------------------------------------------------------------------------
  WS02003066WSF200        1.00   0.04  0.02  0.00  0.00  0.94  0.00  0.00  0.65  0.00
  WS02006287WS02006284    1.00   0.04  0.01  0.00  0.65  0.29  0.00  0.00  0.76  0.00
  WS02006284WS02006280    1.00   0.04  0.00  0.00  0.00  0.00  0.00  0.96  0.00  0.00
  WS02006280WS02006229    1.00   0.04  0.00  0.00  0.00  0.00  0.00  0.96  0.00  0.00
  WS02006229WS02006228    1.00   0.00  0.00  0.00  0.99  0.00  0.00  0.01  0.00  0.00
  WS02006256WS02006235    1.00   0.00  0.00  0.00  1.00  0.00  0.00  0.00  0.00  0.00
  WS02006253WS02006251    1.00   0.03  0.01  0.00  0.96  0.00  0.00  0.00  0.00  0.00
  WS02006252WS02006251    1.00   0.07  0.00  0.00  0.00  0.00  0.93  0.00  0.00  0.00
  WS02006251WS02006249    1.00   0.00  0.00  0.00  1.00  0.00  0.00  0.00  0.25  0.00
  WS02006249WS02006248    1.00   0.00  0.02  0.00  0.92  0.00  0.06  0.00  0.00  0.00
  WS02006248WS02006247    1.00   0.02  0.00  0.00  0.98  0.00  0.00  0.00  0.14  0.00
  WS02006247WS02006245    1.00   0.02  0.00  0.00  0.98  0.00  0.00  0.00  0.00  0.00
  WS02006245WS02006243    1.00   0.01  0.00  0.00  0.94  0.00  0.00  0.04  0.01  0.00
  WS02006243WS02006242    1.00   0.01  0.00  0.00  0.99  0.00  0.00  0.00  0.25  0.00
  WS02006242WS02006240    1.00   0.00  0.00  0.00  1.00  0.00  0.00  0.00  0.00  0.00
  WS02006240WS02006239    1.00   0.00  0.00  0.00  0.96  0.00  0.00  0.04  0.01  0.00
  WS02006239WS02006238    1.00   0.00  0.00  0.00  1.00  0.00  0.00  0.00  0.00  0.00
  WS02006238WS02006235    1.00   0.00  0.00  0.00  1.00  0.00  0.00  0.00  0.00  0.00
  WS02006235WS02006234    1.00   0.00  0.00  0.00  0.96  0.00  0.04  0.00  0.00  0.00
  WS02006234WS02006232    1.00   0.00  0.00  0.00  1.00  0.00  0.00  0.00  0.04  0.00
  WS02006232WS02006231    1.00   0.00  0.00  0.00  0.99  0.00  0.00  0.00  0.00  0.00
  WS02006231WS02006230    1.00   0.00  0.00  0.00  0.80  0.00  0.20  0.00  0.00  0.00
  WS02006230WS02006229    1.00   0.00  0.00  0.00  0.99  0.00  0.00  0.01  0.01  0.00
  WS02006228WS02006109    1.00   0.00  0.00  0.00  1.00  0.00  0.00  0.00  0.00  0.00
  WS02006116WS02004401    1.00   0.02  0.00  0.00  0.98  0.00  0.00  0.00  0.00  0.00
  WS02006115WS02006116    1.00   0.02  0.00  0.00  0.97  0.00  0.00  0.01  0.00  0.00
  WS02006113WS02006111    1.00   0.02  0.00  0.00  0.00  0.98  0.00  0.00  0.09  0.00
  WS02006112WS02006115    1.00   0.02  0.00  0.00  0.98  0.00  0.00  0.00  0.00  0.00
  WS02006111WS02006112    1.00   0.02  0.00  0.00  0.98  0.00  0.00  0.00  0.97  0.00
  WS02006110WS02006113    1.00   0.01  0.01  0.00  0.98  0.00  0.00  0.00  0.00  0.00
  WS02006109WS02006110    1.00   0.00  0.01  0.00  0.98  0.00  0.01  0.00  0.00  0.00
  WS02004411WS02004412    1.00   0.04  0.00  0.00  0.96  0.00  0.00  0.00  0.00  0.00
  WS02004401WS02004402    1.00   0.02  0.00  0.00  0.98  0.00  0.00  0.00  0.00  0.00
  WS02004413WS02003067    1.00   0.04  0.01  0.00  0.00  0.00  0.95  0.00  0.00  0.00
  WS02004412WS02004413    1.00   0.04  0.00  0.00  0.96  0.00  0.00  0.00  0.03  0.00
  WS02004410WS02004411    1.00   0.04  0.00  0.00  0.96  0.00  0.00  0.00  0.03  0.00
  WS02004409WS02004410    1.00   0.04  0.00  0.00  0.96  0.00  0.00  0.00  0.03  0.00
  WS02004407WS02004409    1.00   0.04  0.00  0.00  0.96  0.00  0.00  0.00  0.89  0.00
  WS02004406WS02004407    1.00   0.00  0.04  0.00  0.96  0.00  0.00  0.00  0.00  0.00
  WS02004405WS02004406    1.00   0.00  0.00  0.00  1.00  0.00  0.00  0.00  0.01  0.00
  WS02004404WS02004405    1.00   0.00  0.00  0.00  1.00  0.00  0.00  0.00  0.00  0.00
  WS02004403WS02004404    1.00   0.00  0.02  0.00  0.98  0.00  0.00  0.00  0.01  0.00
  WS02004402WS02004403    1.00   0.02  0.00  0.00  0.98  0.00  0.00  0.00  0.00  0.00
  WS02004139WS02001211    1.00   0.00  0.00  0.00  1.00  0.00  0.00  0.00  0.00  0.00
  WS02004138WS02004139    1.00   0.00  0.00  0.00  0.99  0.01  0.00  0.00  1.00  0.00
  WS02003067WS02003066    1.00   0.05  0.00  0.00  0.95  0.00  0.00  0.00  0.00  0.00
  WS02001213WS02003059    1.00   0.00  0.00  0.00  0.99  0.00  0.00  0.00  0.00  0.00
  WS02001212WS02001213    1.00   0.00  0.00  0.00  0.90  0.00  0.09  0.00  0.00  0.00
  WS02001211WS02001212    1.00   0.00  0.00  0.00  1.00  0.00  0.00  0.00  0.00  0.00
  WS02003072WS02003073    1.00   0.00  0.00  0.00  0.00  0.00  0.00  1.00  0.00  0.00
  WS02003069WS02003072    1.00   0.00  0.00  0.00  0.99  0.01  0.00  0.00  0.25  0.00
  WS02003060WS02003069    1.00   0.00  0.00  0.00  0.97  0.03  0.00  0.00  0.16  0.00
  WS02003059WS02003060    1.00   0.00  0.00  0.00  1.00  0.00  0.00  0.00  0.01  0.00
  HS02004901HS02004770    1.00   0.04  0.00  0.00  0.96  0.00  0.00  0.00  0.02  0.00
  HS02004876HS02004881    1.00   0.02  0.00  0.00  0.96  0.01  0.00  0.00  0.00  0.00
  HS02004870HS02004876    1.00   0.00  0.00  0.00  0.99  0.00  0.00  0.00  0.95  0.00
  HS02004842HS02004848    1.00   0.00  0.04  0.00  0.96  0.00  0.00  0.00  0.67  0.00
  HS02004837HS02004842    1.00   0.00  0.00  0.00  0.99  0.01  0.00  0.00  0.11  0.00
  HS02004830HS02004837    1.00   0.00  0.00  0.00  1.00  0.00  0.00  0.00  0.99  0.00
  HS02004824HS02004830    1.00   0.00  0.00  0.00  1.00  0.00  0.00  0.00  0.00  0.00
  HS02004817HS02004824    1.00   0.00  0.00  0.00  1.00  0.00  0.00  0.00  1.00  0.00
  HS02004770HS02004777    1.00   0.00  0.04  0.00  0.96  0.00  0.00  0.00  0.07  0.00
  HS02004799HS02004480    1.00   0.00  0.02  0.00  0.95  0.00  0.03  0.00  0.00  0.00
  HS02004792HS02004799    1.00   0.00  0.00  0.00  0.99  0.01  0.00  0.00  0.98  0.00
  HS02004788HS02004792    1.00   0.00  0.00  0.00  0.99  0.01  0.00  0.00  0.98  0.00
  HS02004785HS02004788    1.00   0.00  0.00  0.00  1.00  0.00  0.00  0.00  0.00  0.00
  HS02004777HS02004785    1.00   0.00  0.00  0.00  1.00  0.00  0.00  0.00  0.20  0.00
  HS02004480HS02004478    1.00   0.04  0.00  0.00  0.71  0.00  0.00  0.25  0.00  0.00
  HS02004479HS02004480    1.00   0.03  0.00  0.00  0.97  0.00  0.00  0.00  0.15  0.00
  HS02004862HS02004870    1.00   0.00  0.00  0.00  1.00  0.00  0.00  0.00  0.06  0.00
  HS02004848HS02004852    1.00   0.04  0.00  0.00  0.96  0.00  0.00  0.00  0.71  0.00
  HS02004856HS02004862    1.00   0.00  0.06  0.00  0.94  0.00  0.00  0.00  0.75  0.00
  HS02004852HS02004856    1.00   0.04  0.01  0.00  0.95  0.00  0.00  0.00  0.83  0.00
  HS02004802HS02004478    1.00   0.04  0.00  0.00  0.95  0.00  0.00  0.00  0.01  0.00
  HS02004478WS02006287    1.00   0.05  0.00  0.00  0.82  0.13  0.00  0.00  0.73  0.00
  HS02004817HS02004807    1.00   0.00  0.04  0.00  0.96  0.00  0.00  0.00  0.00  0.00
  HS02004807HS02004802    1.00   0.04  0.00  0.00  0.96  0.00  0.00  0.00  0.01  0.00
  YS02001759YS02001757    1.00   0.00  0.00  0.00  1.00  0.00  0.00  0.00  0.17  0.00
  YS02001762YS02001759    1.00   0.00  0.00  0.00  1.00  0.00  0.00  0.00  0.04  0.00
  YS02001765YS02001762    1.00   0.00  0.00  0.00  1.00  0.00  0.00  0.00  0.21  0.00
  YS02001770YS02001767    1.00   0.00  0.00  0.00  1.00  0.00  0.00  0.00  0.00  0.00
  YS02001774YS02001770    1.00   0.00  0.05  0.00  0.95  0.00  0.00  0.00  0.06  0.00
  YS02001779YS02001774    1.00   0.00  0.00  0.00  1.00  0.00  0.00  0.00  0.25  0.00
  YS02001649YS02001757    1.00   0.00  0.00  0.00  1.00  0.00  0.00  0.00  0.19  0.00
  YS02001767YS02001765    1.00   0.00  0.00  0.00  1.00  0.00  0.00  0.00  0.01  0.00
  YS02006561YS02001783    1.00   0.06  0.00  0.00  0.00  0.94  0.00  0.00  0.57  0.00
  YS02001783YS02001784    1.00   0.00  0.06  0.00  0.94  0.00  0.00  0.00  0.00  0.00
  YS02001784YS02001785    1.00   0.00  0.00  0.00  1.00  0.00  0.00  0.00  0.24  0.00
  YS02001788YS02001790    1.00   0.00  0.00  0.00  0.08  0.92  0.00  0.00  0.67  0.00
  YS02001790YS02001791    1.00   0.00  0.00  0.00  0.06  0.94  0.00  0.00  0.63  0.00
  YS02001791YS02001793    1.00   0.00  0.00  0.00  0.07  0.93  0.00  0.00  0.02  0.00
  YS02001910YS02001907    1.00   0.00  0.00  0.00  0.98  0.00  0.00  0.02  0.13  0.00
  YS02001786YS02001788    1.00   0.00  0.00  0.00  0.07  0.93  0.00  0.00  0.00  0.00
  YS02001915YS02001910    1.00   0.00  0.00  0.00  0.99  0.01  0.00  0.00  0.23  0.00
  YS02001918YS02001915    1.00   0.00  0.01  0.00  0.98  0.01  0.00  0.00  0.66  0.00
  YS02001923YS02001920    1.00   0.00  0.00  0.00  1.00  0.00  0.00  0.00  1.00  0.00
  YS02001926YS02001923    1.00   0.00  0.03  0.00  0.00  0.00  0.97  0.00  0.00  0.00
  YS02001929YS02001926    1.00   0.00  0.04  0.00  0.96  0.00  0.00  0.00  0.87  0.00
  YS02001920YS02001918    1.00   0.00  0.01  0.00  0.99  0.00  0.00  0.00  0.00  0.00
  YS02001629YS02163301    1.00   0.05  0.00  0.00  0.94  0.00  0.00  0.00  0.00  0.00
  YS02001619YS02001622    1.00   0.04  0.00  0.00  0.96  0.00  0.00  0.00  0.00  0.00
  YS02001622YS02001625    1.00   0.04  0.00  0.00  0.96  0.00  0.00  0.00  0.12  0.00
  YS02001625YS02001629    1.00   0.04  0.02  0.00  0.93  0.00  0.01  0.00  0.00  0.00
  YS02163301YS02001633    1.00   0.00  0.05  0.00  0.95  0.00  0.00  0.00  0.00  0.00
  YS02163601YS02164001    1.00   0.00  0.03  0.00  0.97  0.00  0.00  0.00  0.00  0.00
  YS02164001YS02001641    1.00   0.01  0.03  0.00  0.97  0.00  0.00  0.00  0.07  0.00
  YS02001641YS02001644    1.00   0.00  0.01  0.00  0.99  0.00  0.00  0.00  0.00  0.00
  YS02001647YS02001649    1.00   0.00  0.06  0.00  0.94  0.00  0.00  0.00  0.01  0.00
  YS02006553YS02006556    1.00   0.01  0.00  0.00  0.99  0.00  0.00  0.00  0.03  0.00
  YS02006556YS02006558    1.00   0.00  0.00  0.00  1.00  0.00  0.00  0.00  0.00  0.00
  YSB6556YSB1171          1.00   0.03  0.01  0.00  0.96  0.00  0.00  0.00  0.00  0.00
  YS02001907YS02006553    1.00   0.00  0.02  0.00  0.98  0.00  0.00  0.00  0.00  0.00
  YS02006558YS02006561    1.00   0.06  0.00  0.00  0.00  0.94  0.00  0.00  0.57  0.00
  YS02001633YS02163601    1.00   0.00  0.01  0.00  0.99  0.00  0.00  0.00  0.19  0.00
  YS02001644YS02001647    1.00   0.00  0.06  0.00  0.94  0.00  0.00  0.00  0.00  0.00
  YS02001745YS02001748    1.00   0.00  0.00  0.00  0.90  0.00  0.00  0.09  0.06  0.00
  YS02001748YS02001751    1.00   0.00  0.00  0.00  0.98  0.02  0.00  0.00  0.22  0.00
  YS02001751YS02001754    1.00   0.00  0.00  0.00  0.93  0.00  0.00  0.07  0.01  0.00
  YS02001754YS02001757    1.00   0.00  0.00  0.00  0.99  0.01  0.00  0.00  0.25  0.00
  YS02001882YS02001884    1.00   0.05  0.00  0.00  0.94  0.00  0.00  0.00  0.00  0.00
  YS02001884YS02001887    1.00   0.03  0.01  0.00  0.96  0.00  0.00  0.00  0.00  0.00
  YS02001890YS02001895    1.00   0.00  0.05  0.00  0.94  0.00  0.00  0.00  0.00  0.00
  YS02001895YS02001898    1.00   0.06  0.00  0.00  0.94  0.00  0.01  0.00  0.00  0.00
  YS02001898YS02001901    1.00   0.06  0.00  0.00  0.94  0.00  0.00  0.00  0.02  0.00
  YS02001901YS02001904    1.00   0.06  0.00  0.00  0.94  0.00  0.00  0.00  0.00  0.00
  YS02001904YS02001907    1.00   0.00  0.05  0.00  0.94  0.00  0.00  0.00  0.00  0.00
  YS02001887YS02001890    1.00   0.00  0.00  0.00  0.98  0.00  0.02  0.00  0.00  0.00
  YS02001652YS02001649    1.00   0.00  0.00  0.00  1.00  0.00  0.00  0.00  0.25  0.00
  YS02001655YS02001652    1.00   0.00  0.00  0.00  0.93  0.00  0.00  0.07  0.01  0.00
  YS02001658YS02001655    1.00   0.00  0.05  0.00  0.93  0.02  0.00  0.00  0.07  0.00
  YS02001661YS02001658    1.00   0.05  0.00  0.00  0.90  0.05  0.00  0.00  0.06  0.00
  YS02001664YS02001661    1.00   0.04  0.00  0.00  0.84  0.12  0.00  0.00  0.43  0.00
  YSB1154YSB6556          1.00   0.04  0.00  0.00  0.96  0.00  0.00  0.00  0.02  0.00
  YSB1174YSB1171          1.00   0.03  0.01  0.00  0.96  0.00  0.00  0.00  0.00  0.00
  YSB1171HS02004479       1.00   0.03  0.00  0.00  0.97  0.00  0.00  0.00  0.13  0.00
  HS02004881HS02006253    1.00   0.03  0.00  0.00  0.83  0.01  0.00  0.13  0.65  0.00
  YS02001793JiankangQianchi    1.00   0.00  0.00  0.00  0.38  0.62  0.00  0.00  0.26  0.00
  YS02001757CaochengTiaoxuchi    1.00   0.00  0.07  0.00  0.91  0.02  0.00  0.00  0.00  0.00
  WSF200WS02003060        1.00   0.00  0.04  0.00  0.72  0.24  0.00  0.00  0.35  0.00
  1                       1.00   0.00  0.00  0.00  0.00  1.00  0.00  0.00  0.40  0.00
  2                       1.00   0.42  0.00  0.00  0.00  0.58  0.00  0.00  0.14  0.00
  3                       1.00   0.09  0.00  0.00  0.00  0.91  0.00  0.00  0.27  0.00
  4                       1.00   1.00  0.00  0.00  0.00  0.00  0.00  0.00  0.00  0.00
  
  
  *************************
  Conduit Surcharge Summary
  *************************
  
  ----------------------------------------------------------------------------
                                                           Hours        Hours 
                         --------- Hours Full --------   Above Full   Capacity
  Conduit                Both Ends  Upstream  Dnstream   Normal Flow   Limited
  ----------------------------------------------------------------------------
  WS02006229WS02006228        2.66      3.14      2.66      5.09         2.66
  WS02006256WS02006235        5.78      5.79      7.68      1.95         0.01
  WS02006253WS02006251        0.01      0.01      0.02      0.01         0.01
  WS02006252WS02006251        1.89      1.89      3.46      3.06         0.01
  WS02006251WS02006249        0.01      0.01      0.01      1.96         0.01
  WS02006249WS02006248        0.01      0.01      0.01      4.80         0.01
  WS02006248WS02006247        0.01      0.01      0.01      0.01         0.01
  WS02006247WS02006245        0.01      0.04      0.01      5.09         0.01
  WS02006245WS02006243        0.02      0.02      0.10      0.01         0.01
  WS02006243WS02006242        0.13      0.13      2.08      0.01         0.01
  WS02006242WS02006240        0.55      0.55      2.78      3.46         0.01
  WS02006240WS02006239        0.63      0.63      0.77      0.01         0.01
  WS02006239WS02006238        2.53      2.53      2.70      0.08         0.10
  WS02006238WS02006235        2.44      2.44      3.17      0.01         0.01
  WS02006235WS02006234        0.72      0.72      2.06      5.80         0.01
  WS02006234WS02006232        0.85      0.85      3.28      0.01         0.01
  WS02006232WS02006231        0.23      0.23      3.28      0.01         0.01
  WS02006231WS02006230        0.16      0.16      0.26      5.79         0.01
  WS02006230WS02006229        4.35      4.94      4.35      5.87         4.35
  WS02006228WS02006109        2.90      3.84      2.90      5.55         2.90
  WS02006112WS02006115        0.01      0.01      0.81      0.01         0.01
  WS02006111WS02006112        0.01      0.01      5.16      0.01         0.01
  WS02006110WS02006113        0.01      0.01      3.50      0.01         0.01
  WS02006109WS02006110        0.40      0.40      3.84      0.41         0.01
  WS02004405WS02004406        0.01      0.08      0.01      0.74         0.01
  WS02004404WS02004405        0.08      0.15      0.08      5.69         0.08
  WS02004403WS02004404        0.01      0.01      0.15      0.01         0.01
  WS02003072WS02003073        0.01      0.01      0.01      5.48         0.01
  HS02004480HS02004478        0.01      0.01      0.01      0.11         0.01
  YS02001759YS02001757        5.49      5.49      5.53      0.01         0.01
  YS02001762YS02001759        5.47      5.47      5.49      0.01         0.01
  YS02001765YS02001762        5.44      5.44      5.47      0.01         0.01
  YS02001770YS02001767        5.31      5.33      5.33      0.01         0.76
  YS02001774YS02001770        5.27      5.27      5.47      0.01         0.01
  YS02001779YS02001774        5.04      5.04      5.47      0.01         0.01
  YS02001649YS02001757        5.47      5.47      5.53      0.01         0.01
  YS02001767YS02001765        5.33      5.33      5.44      0.01         0.01
  YS02001784YS02001785        0.01      0.01      0.01      0.97         0.01
  YS02001791YS02001793        0.01      0.01      0.33      0.01         0.01
  YS02001786YS02001788        0.01      0.01      0.01      0.47         0.01
  YS02001629YS02163301        5.27      5.28      5.33      0.01         0.01
  YS02001619YS02001622        3.75      3.75      4.00      0.01         0.02
  YS02001622YS02001625        3.99      3.99      5.23      0.01         0.01
  YS02001625YS02001629        3.78      3.78      5.23      0.01         0.01
  YS02163301YS02001633        5.33      5.33      5.45      0.01         0.01
  YS02163601YS02164001        5.43      5.43      5.47      0.01         0.01
  YS02164001YS02001641        5.43      5.43      5.46      0.01         0.01
  YS02001641YS02001644        5.46      5.46      5.46      0.01         1.09
  YS02001647YS02001649        5.22      5.22      5.47      0.01         0.01
  YS02006553YS02006556        0.01      0.01      0.02      0.01         0.01
  YS02006556YS02006558        0.01      0.01      0.19      0.01         0.01
  YS02001907YS02006553        0.99      0.99      1.19      0.01         0.01
  YS02006558YS02006561        0.01      0.01      0.01      0.82         0.01
  YS02001633YS02163601        5.42      5.42      5.47      0.01         0.01
  YS02001644YS02001647        5.22      5.22      5.46      0.01         0.01
  YS02001745YS02001748        0.01      0.01      1.83      0.01         0.01
  YS02001748YS02001751        2.49      2.49      4.22      0.01         0.01
  YS02001751YS02001754        4.22      4.22      5.11      0.01         0.01
  YS02001754YS02001757        5.22      5.22      5.53      0.01         0.01
  YS02001904YS02001907        0.01      0.01      0.02      0.01         0.01
  YS02001652YS02001649        5.23      5.23      5.47      0.01         0.01
  YS02001655YS02001652        4.35      4.35      5.20      0.01         0.01
  YS02001658YS02001655        1.47      1.47      4.35      0.01         0.01
  YS02001661YS02001658        0.01      0.01      1.48      0.01         0.01
  YS02001793JiankangQianchi        0.26      0.26      1.88      0.01         0.01
  YS02001757CaochengTiaoxuchi        3.15      3.15      5.53      0.01         0.01
  
  
  ***************
  Pumping Summary
  ***************
  
  ---------------------------------------------------------------------------------------------------------
                                                  Min       Avg       Max     Total     Power    % Time Off
                        Percent   Number of      Flow      Flow      Flow    Volume     Usage    Pump Curve
  Pump                 Utilized   Start-Ups       LPS       LPS       LPS  10^6 ltr     Kw-hr    Low   High
  ---------------------------------------------------------------------------------------------------------
  CC-Pump-1               65.79           3      0.00    140.75    200.00     2.639      6.25    0.0   11.3
  CC-Pump-2               67.91           3      0.00    154.98    200.00     2.966      6.46    0.0    7.9
  JK-Pump-1               85.10           5      0.00    166.42    300.00     3.087     46.72    0.0    0.0
  JK-Pump-2               87.23           5      0.00    155.57    300.00     2.766     45.27    0.0    0.0
  XR-Pump-1               95.73           8      0.00     75.67     95.00     2.052     17.73    0.0    0.0
  XR-Pump-2               82.99           6      0.00     73.62     95.00     1.625     13.30    0.0    0.0
  XR-Pump-3               80.83          11      0.00     66.11     95.00     1.454     12.51    0.0    0.0
  XR-Pump-4               87.22           8      0.00     68.74     95.00     1.653     13.29    0.0    0.0
  

  Analysis begun on:  Tue Dec 21 14:00:57 2021
  Analysis ended on:  Tue Dec 21 14:01:01 2021
  Total elapsed time: 00:00:04