
  EPA STORM WATER MANAGEMENT MODEL - VERSION 5.1 (Build 5.3.0.dev0)
  --------------------------------------------------------------

  WARNING 04: minimum elevation drop used for Conduit WS02004404WS02004405
  WARNING 03: negative offset ignored for Link YS02001904YS02001907
  
  *********************************************************
  NOTE: The summary statistics displayed in this report are
  based on results found at every computational time step,  
  not just on results from each reporting time step.
  *********************************************************
  
  ****************
  Analysis Options
  ****************
  Flow Units ............... LPS
  Process Models:
    Rainfall/Runoff ........ YES
    RDII ................... NO
    Snowmelt ............... NO
    Groundwater ............ NO
    Flow Routing ........... YES
    Ponding Allowed ........ NO
    Water Quality .......... NO
  Infiltration Method ...... HORTON
  Flow Routing Method ...... DYNWAVE
  Surcharge Method ......... EXTRAN
  Starting Date ............ 08/28/2015 08:00:00
  Ending Date .............. 08/28/2015 15:50:00
  Antecedent Dry Days ...... 8.0
  Report Time Step ......... 00:01:00
  Wet Time Step ............ 00:01:00
  Dry Time Step ............ 00:01:00
  Routing Time Step ........ 5.00 sec
  Variable Time Step ....... YES
  Maximum Trials ........... 8
  Number of Threads ........ 4
  Head Tolerance ........... 0.001500 m
  
  
  **************************        Volume         Depth
  Runoff Quantity Continuity     hectare-m            mm
  **************************     ---------       -------
  Total Precipitation ......         3.415         7.477
  Evaporation Loss .........         0.000         0.000
  Infiltration Loss ........         0.866         1.897
  Surface Runoff ...........         1.613         3.532
  Final Storage ............         0.937         2.051
  Continuity Error (%) .....        -0.018
  
  
  **************************        Volume        Volume
  Flow Routing Continuity        hectare-m      10^6 ltr
  **************************     ---------     ---------
  Dry Weather Inflow .......         0.616         6.165
  Wet Weather Inflow .......         1.612        16.122
  Groundwater Inflow .......         0.000         0.000
  RDII Inflow ..............         0.000         0.000
  External Inflow ..........         0.102         1.024
  External Outflow .........         1.917        19.174
  Flooding Loss ............         0.042         0.417
  Evaporation Loss .........         0.000         0.000
  Exfiltration Loss ........         0.000         0.000
  Initial Stored Volume ....         0.076         0.761
  Final Stored Volume ......         0.533         5.327
  Continuity Error (%) .....        -3.522
  
  
  *************************
  Highest Continuity Errors
  *************************
  Node YS02001774 (29.47%)
  Node HS02004842 (24.06%)
  Node YS02001884 (16.83%)
  Node JK-storage (-15.81%)
  Node YSB1171 (5.31%)
  
  
  ***************************
  Time-Step Critical Elements
  ***************************
  Link 3 (45.31%)
  Link WS02006252WS02006251 (40.94%)
  Link WS02006238WS02006235 (4.09%)
  Link WS02006229WS02006228 (2.30%)
  Link WS02006280WS02006229 (1.85%)
  
  
  ********************************
  Highest Flow Instability Indexes
  ********************************
  Link WS02006113WS02006111 (37)
  Link YS02001779YS02001774 (26)
  Link YS02001774YS02001770 (23)
  Link WS02006111WS02006112 (23)
  Link YS02001765YS02001762 (19)
  
  
  *************************
  Routing Time Step Summary
  *************************
  Minimum Time Step           :     0.50 sec
  Average Time Step           :     0.87 sec
  Maximum Time Step           :     5.00 sec
  Percent in Steady State     :    -0.00
  Average Iterations per Step :     4.46
  Percent Not Converging      :    28.62
  
  
  ***************************
  Subcatchment Runoff Summary
  ***************************
  
  ------------------------------------------------------------------------------------------------------------------------------
                            Total      Total      Total      Total     Imperv       Perv      Total       Total     Peak  Runoff
                           Precip      Runon       Evap      Infil     Runoff     Runoff     Runoff      Runoff   Runoff   Coeff
  Subcatchment                 mm         mm         mm         mm         mm         mm         mm    10^6 ltr      LPS
  ------------------------------------------------------------------------------------------------------------------------------
  sub0                       7.48       0.00       0.00       0.52       5.69       0.00       5.69        0.00     2.10   0.761
  sub1                       7.48       0.00       0.00       0.82       5.40       0.00       5.40        0.04    11.21   0.722
  sub2                       7.48       0.00       0.00       2.77       3.80       0.00       3.80        0.04     9.93   0.509
  sub3                       7.48       0.00       0.00       2.77       3.77       0.00       3.77        0.08    20.49   0.504
  sub4                       7.48       0.00       0.00       0.82       5.26       0.00       5.26        0.11    23.03   0.703
  sub5                       7.48       0.00       0.00       0.52       5.64       0.00       5.64        0.06    19.93   0.754
  sub7                       7.48       0.00       0.00       0.67       5.55       0.00       5.55        0.02     7.00   0.742
  sub8                       7.48       0.00       0.00       0.67       5.54       0.00       5.54        0.04    12.37   0.741
  sub9                       7.48       0.00       0.00       0.67       5.54       0.00       5.54        0.03     9.17   0.741
  sub10                      7.48       0.00       0.00       0.60       5.59       0.00       5.59        0.06    19.87   0.747
  sub11                      7.48       0.00       0.00       0.60       5.60       0.00       5.60        0.07    23.25   0.750
  sub12                      7.48       0.00       0.00       0.97       5.32       0.00       5.32        0.05    19.54   0.711
  sub14                      7.48       0.00       0.00       0.67       5.54       0.00       5.54        0.05    17.92   0.740
  sub15                      7.48       0.00       0.00       2.24       4.26       0.00       4.26        0.07    24.34   0.569
  sub16                      7.48       0.00       0.00       2.47       4.09       0.00       4.09        0.04    17.23   0.547
  sub17                      7.48       0.00       0.00       2.39       4.15       0.00       4.15        0.04    13.93   0.555
  sub22                      7.48       0.00       0.00       3.22       3.47       0.00       3.47        0.22    79.48   0.465
  sub23                      7.48       0.00       0.00       2.77       3.84       0.00       3.84        0.18    67.68   0.514
  sub60                      7.48       0.00       0.00       0.90       3.98       0.00       3.98        1.21   118.33   0.532
  sub61                      7.48       0.00       0.00       1.27       4.18       0.00       4.18        1.29   148.08   0.559
  sub62                      7.48       0.00       0.00       0.60       4.51       0.00       4.51        1.39   151.44   0.603
  sub63                      7.48       0.00       0.00       2.17       3.70       0.00       3.70        1.12   138.08   0.495
  sub64                      7.48       0.00       0.00       1.12       3.81       0.00       3.81        1.16   112.42   0.510
  sub65                      7.48       0.00       0.00       0.97       3.86       0.00       3.86        1.19   114.11   0.517
  sub66                      7.48       0.00       0.00       2.17       3.31       0.00       3.31        1.01   102.94   0.442
  sub67                      7.48       0.00       0.00       0.60       4.88       0.00       4.88        1.51   194.00   0.653
  sub68                      7.48       0.00       0.00       1.05       4.43       0.00       4.43        1.36   163.63   0.592
  sub69                      7.48       0.00       0.00       1.12       4.71       0.00       4.71        1.10   162.15   0.630
  sub70                      7.48       4.81       0.00       4.18       5.98       0.00       5.98        1.37   134.81   0.487
  sub71                      7.48       0.00       0.00       0.60       4.34       0.00       4.34        1.02   105.79   0.580
  sub72                      7.48       0.00       0.00       0.52       3.19       0.00       3.19        0.65    51.17   0.426
  sub73                      7.48       5.82       0.00       4.52       6.24       0.00       6.24        1.47   117.64   0.469
  sub74                      7.48       0.00       0.00       5.61       1.41       0.00       1.41        0.57    90.39   0.189
  
  
  ******************
  Node Depth Summary
  ******************
  
  ---------------------------------------------------------------------------------
                                 Average  Maximum  Maximum  Time of Max    Reported
                                   Depth    Depth      HGL   Occurrence   Max Depth
  Node                 Type       Meters   Meters   Meters  days hr:min      Meters
  ---------------------------------------------------------------------------------
  WS02001211           JUNCTION     0.67     0.78     5.62     0  02:50        0.78
  WS02001212           JUNCTION     0.39     0.50     5.56     0  02:51        0.49
  WS02001213           JUNCTION     0.63     0.75     5.51     0  02:51        0.75
  WS02003069           JUNCTION     0.45     0.57     5.16     0  02:52        0.57
  WS02003072           JUNCTION     0.52     0.63     5.00     0  02:53        0.63
  WS02003073           JUNCTION     0.31     0.39     4.45     0  02:54        0.39
  WS02003060           JUNCTION     0.40     0.50     5.44     0  02:52        0.50
  WS02003066           JUNCTION     0.24     0.31     5.87     0  02:28        0.31
  WS02003059           JUNCTION     0.69     0.80     5.49     0  02:51        0.80
  WS02003067           JUNCTION     0.58     0.72     6.04     0  02:28        0.72
  WS02004401           JUNCTION     0.69     0.91     6.91     0  02:24        0.91
  WS02004402           JUNCTION     0.72     0.93     6.89     0  02:24        0.93
  WS02004403           JUNCTION     0.74     0.95     6.88     0  02:24        0.94
  WS02004404           JUNCTION     0.81     1.02     6.87     0  02:24        1.01
  WS02004406           JUNCTION     0.82     0.99     6.82     0  02:25        0.99
  WS02004409           JUNCTION     0.51     0.71     6.48     0  02:27        0.71
  WS02004410           JUNCTION     0.53     0.72     6.44     0  02:27        0.72
  WS02004411           JUNCTION     0.54     0.73     6.41     0  02:28        0.73
  WS02004412           JUNCTION     0.55     0.73     6.37     0  02:28        0.73
  WS02004413           JUNCTION     0.71     0.89     6.36     0  02:28        0.89
  WS02004405           JUNCTION     0.81     1.00     6.85     0  02:24        1.00
  WS02006109           JUNCTION     0.78     1.11     7.72     0  02:18        1.05
  WS02006110           JUNCTION     0.76     1.03     7.62     0  02:18        1.01
  WS02006111           JUNCTION     0.23     0.31     7.02     0  02:19        0.31
  WS02006112           JUNCTION     0.86     1.20     7.08     0  02:19        1.12
  WS02006113           JUNCTION     0.35     0.49     7.39     0  02:19        0.49
  WS02006115           JUNCTION     0.58     0.82     6.96     0  02:24        0.82
  WS02006116           JUNCTION     0.66     0.89     6.93     0  02:24        0.89
  WS02006230           JUNCTION     0.76     1.31     8.05     0  02:18        1.12
  WS02006231           JUNCTION     0.51     1.15     8.27     0  02:18        0.78
  WS02006232           JUNCTION     0.65     1.10     8.14     0  02:18        0.90
  WS02006234           JUNCTION     0.58     1.07     8.22     0  02:18        0.83
  WS02006235           JUNCTION     0.61     1.06     8.22     0  02:18        0.86
  WS02006238           JUNCTION     0.64     1.08     8.22     0  02:18        0.89
  WS02006240           JUNCTION     0.54     1.16     8.46     0  02:18        0.83
  WS02006242           JUNCTION     0.60     1.30     8.57     0  02:18        0.90
  WS02006243           JUNCTION     0.48     1.39     8.81     0  02:18        0.80
  WS02006245           JUNCTION     0.46     0.85     8.33     0  02:18        0.75
  WS02006247           JUNCTION     0.48     1.21     8.71     0  02:18        0.73
  WS02006248           JUNCTION     0.42     0.68     8.26     0  02:18        0.64
  WS02006249           JUNCTION     0.45     0.65     8.25     0  02:20        0.64
  WS02006239           JUNCTION     0.60     1.18     8.39     0  02:18        0.87
  WS02006251           JUNCTION     0.44     0.71     8.38     0  02:19        0.69
  WS02006252           JUNCTION     0.40     0.59     8.84     0  06:56        0.59
  WS02006253           JUNCTION     0.47     0.73     8.38     0  02:20        0.73
  WS02006256           JUNCTION     1.06     2.35     9.28     0  00:00        1.21
  WS02004138           JUNCTION     0.15     0.19     7.44     0  05:42        0.19
  WS02004407           JUNCTION     0.23     0.32     6.63     0  02:25        0.31
  WS02006228           JUNCTION     0.78     1.16     7.82     0  02:18        1.11
  WS02006229           JUNCTION     0.76     1.18     7.87     0  02:18        1.12
  WS02006280           JUNCTION     0.06     0.18     8.45     0  02:14        0.18
  WS02006284           JUNCTION     0.36     0.53     8.92     0  02:14        0.53
  WS02006287           JUNCTION     0.09     0.26     9.21     0  02:14        0.26
  WSF200               JUNCTION     0.23     0.32     5.55     0  02:33        0.32
  HS02004901           JUNCTION     0.12     0.27    10.09     0  02:12        0.27
  HS02004881           JUNCTION     0.01     0.03     9.06     0  02:15        0.03
  HS02004876           JUNCTION     0.04     0.11     9.14     0  02:09        0.11
  HS02004870           JUNCTION     0.01     0.05     9.34     0  02:15        0.05
  HS02004862           JUNCTION     0.02     0.06     9.45     0  02:15        0.06
  HS02004856           JUNCTION     0.08     0.12     9.54     0  02:15        0.12
  HS02004852           JUNCTION     0.01     0.04     9.55     0  02:16        0.04
  HS02004848           JUNCTION     0.01     0.04     9.64     0  02:15        0.04
  HS02004842           JUNCTION     0.33     0.37     9.64     0  02:14        0.37
  HS02004837           JUNCTION     0.03     0.06     9.64     0  02:14        0.06
  HS02004830           JUNCTION     0.04     0.07     9.54     0  02:15        0.07
  HS02004824           JUNCTION     0.02     0.05     9.45     0  02:18        0.05
  HS02004817           JUNCTION     0.43     0.56     9.41     0  02:15        0.56
  HS02004807           JUNCTION     0.12     0.24     9.41     0  02:15        0.24
  HS02004802           JUNCTION     0.16     0.28     9.40     0  02:15        0.28
  HS02004799           JUNCTION     0.11     0.31     9.52     0  02:13        0.31
  HS02004792           JUNCTION     0.03     0.13     9.65     0  02:12        0.13
  HS02004788           JUNCTION     0.02     0.09     9.99     0  02:13        0.09
  HS02004785           JUNCTION     0.04     0.16    10.06     0  02:12        0.16
  HS02004777           JUNCTION     0.14     0.29    10.09     0  02:12        0.29
  HS02004770           JUNCTION     0.11     0.26    10.09     0  02:12        0.26
  HS02004480           JUNCTION     0.07     0.25     9.49     0  02:13        0.25
  HS02004479           JUNCTION     0.11     0.28     9.49     0  02:13        0.28
  HS02004478           JUNCTION     0.06     0.16     9.39     0  02:14        0.16
  YS02001745           JUNCTION     0.49     0.82     8.34     0  05:30        0.82
  YS02001748           JUNCTION     0.88     1.27     8.35     0  05:33        1.26
  YS02001751           JUNCTION     1.06     1.68     8.56     0  03:33        1.46
  YS02001754           JUNCTION     1.31     1.74     8.35     0  05:35        1.74
  YS02001762           JUNCTION     1.51     1.96     8.36     0  05:36        1.95
  YS02001765           JUNCTION     1.46     1.91     8.36     0  05:36        1.90
  YS02001767           JUNCTION     1.43     1.88     8.37     0  05:36        1.86
  YS02001770           JUNCTION     1.42     1.88     8.37     0  05:36        1.85
  YS02001774           JUNCTION     1.49     1.95     8.37     0  05:36        1.93
  YS02001779           JUNCTION     1.24     1.68     8.37     0  03:05        1.67
  YS02001882           JUNCTION     0.34     0.58     7.30     0  02:47        0.58
  YS02001884           JUNCTION     0.43     0.68     7.29     0  02:46        0.68
  YS02001759           JUNCTION     1.54     1.99     8.36     0  05:30        1.98
  YS02001887           JUNCTION     0.51     0.76     7.30     0  02:47        0.76
  YS02001890           JUNCTION     0.54     0.79     7.29     0  02:46        0.79
  YS02001898           JUNCTION     0.31     0.54     7.28     0  02:48        0.54
  YS02001901           JUNCTION     0.43     0.67     7.28     0  02:48        0.67
  YS02001904           JUNCTION     0.41     0.65     7.28     0  02:46        0.64
  YS02001907           JUNCTION     0.74     0.99     7.28     0  02:47        0.98
  YS02001910           JUNCTION     0.53     0.77     7.28     0  02:45        0.77
  YS02001915           JUNCTION     0.33     0.56     7.27     0  02:45        0.56
  YS02001918           JUNCTION     0.10     0.21     7.27     0  02:46        0.21
  YS02001619           JUNCTION     1.02     1.50     8.43     0  04:13        1.46
  YS02001629           JUNCTION     1.38     1.85     8.40     0  06:11        1.83
  YS02001641           JUNCTION     1.48     1.93     8.37     0  04:43        1.92
  YS02001644           JUNCTION     1.48     1.92     8.35     0  04:43        1.92
  YS02001652           JUNCTION     1.33     2.07     8.67     0  03:04        1.77
  YS02001655           JUNCTION     1.09     2.20     9.05     0  02:57        1.64
  YS02001920           JUNCTION     0.20     0.28     7.29     0  02:47        0.28
  YS02001923           JUNCTION     0.08     0.10     7.36     0  03:01        0.10
  YS02001926           JUNCTION     0.16     0.21     7.65     0  03:01        0.21
  YS02001929           JUNCTION     0.08     0.11     7.80     0  03:01        0.11
  YS02001658           JUNCTION     0.82     1.30     8.45     0  04:13        1.25
  YS02001661           JUNCTION     0.59     1.00     8.40     0  05:27        0.99
  YS02001664           JUNCTION     0.21     0.49     8.41     0  05:24        0.49
  YS02001622           JUNCTION     1.05     1.52     8.42     0  04:13        1.48
  YS02001633           JUNCTION     1.47     1.95     8.40     0  06:11        1.92
  YS02001649           JUNCTION     1.52     1.97     8.36     0  05:29        1.97
  YS02001757           JUNCTION     1.64     2.10     8.36     0  05:35        2.09
  YS02001895           JUNCTION     0.30     0.54     7.29     0  02:48        0.54
  YS02001625           JUNCTION     1.33     1.78     8.38     0  02:36        1.78
  YS02163301           JUNCTION     1.41     1.89     8.40     0  06:11        1.86
  YS02163601           JUNCTION     1.52     1.99     8.39     0  06:11        1.97
  YS02164001           JUNCTION     1.46     1.92     8.38     0  06:11        1.91
  YS02001647           JUNCTION     1.31     1.75     8.36     0  05:30        1.75
  YSB1154              JUNCTION     0.25     0.43     9.49     0  02:13        0.43
  YSB6556              JUNCTION     0.14     0.32     9.49     0  02:13        0.32
  YSB1174              JUNCTION     0.20     0.38     9.49     0  02:13        0.38
  YSB1171              JUNCTION     0.40     0.59     9.49     0  02:13        0.59
  YS02006553           JUNCTION     0.74     0.99     7.27     0  02:44        0.99
  YS02006561           JUNCTION     0.17     0.30     6.96     0  02:43        0.30
  YS02006556           JUNCTION     0.71     0.96     7.27     0  02:49        0.96
  YS02006558           JUNCTION     0.76     1.01     7.27     0  02:48        1.00
  YS02001783           JUNCTION     0.30     0.53     6.67     0  02:43        0.53
  YS02001784           JUNCTION     0.33     0.55     6.61     0  02:43        0.54
  YS02001786           JUNCTION     0.28     0.46     6.49     0  02:48        0.46
  YS02001788           JUNCTION     0.21     0.45     6.42     0  03:54        0.40
  YS02001790           JUNCTION     0.26     1.06     6.71     0  03:55        0.79
  YS02001791           JUNCTION     0.18     1.05     6.52     0  03:55        0.91
  YS02001793           JUNCTION     0.18     3.02     7.85     0  03:00        1.52
  WS02004139           JUNCTION     0.61     0.73     5.64     0  02:50        0.72
  WSC                  OUTFALL      0.31     0.39     1.06     0  02:54        0.39
  3                    OUTFALL      0.10     0.23     6.23     0  00:00        0.21
  4                    OUTFALL      0.04     0.15     7.15     0  02:20        0.14
  5                    OUTFALL      0.00     0.00     5.00     0  00:00        0.00
  JK-storage           STORAGE      1.31     5.55     6.35     0  03:55        5.55
  CC-storage           STORAGE      0.87     1.32     8.32     0  05:32        1.32
  XR-storage           STORAGE      6.76     7.72     5.72     0  03:05        7.72
  
  
  *******************
  Node Inflow Summary
  *******************
  
  -------------------------------------------------------------------------------------------------
                                  Maximum  Maximum                  Lateral       Total        Flow
                                  Lateral    Total  Time of Max      Inflow      Inflow     Balance
                                   Inflow   Inflow   Occurrence      Volume      Volume       Error
  Node                 Type           LPS      LPS  days hr:min    10^6 ltr    10^6 ltr     Percent
  -------------------------------------------------------------------------------------------------
  WS02001211           JUNCTION      7.35   386.77     0  05:50       0.207        7.18       0.509
  WS02001212           JUNCTION      0.00   385.77     0  05:50           0        7.15       0.287
  WS02001213           JUNCTION      0.00   385.01     0  05:50           0        7.13       0.359
  WS02003069           JUNCTION      0.32   907.31     0  02:52     0.00902          15       0.229
  WS02003072           JUNCTION      0.00   906.66     0  02:53           0        14.9       0.274
  WS02003073           JUNCTION      1.82   908.06     0  02:53      0.0514          15       0.314
  WS02003060           JUNCTION     16.53   907.32     0  02:52       0.466          15       0.216
  WS02003066           JUNCTION      0.00   602.31     0  02:28           0        7.48       0.069
  WS02003059           JUNCTION      0.00   384.10     0  05:51           0         7.1       0.552
  WS02003067           JUNCTION      0.00   602.23     0  02:28           0        7.49       0.139
  WS02004401           JUNCTION      0.00   611.24     0  02:22           0        7.75       0.311
  WS02004402           JUNCTION      0.00   609.25     0  02:24           0        7.73       0.290
  WS02004403           JUNCTION      0.00   608.25     0  02:24           0        7.71       0.261
  WS02004404           JUNCTION      0.16   610.11     0  02:24     0.00457        7.69       0.192
  WS02004406           JUNCTION      0.00   608.91     0  02:24           0        7.65       0.469
  WS02004409           JUNCTION      0.00   607.34     0  02:25           0        7.61       0.259
  WS02004410           JUNCTION      0.00   604.08     0  02:26           0        7.59       0.287
  WS02004411           JUNCTION      0.00   603.20     0  02:27           0        7.57       0.290
  WS02004412           JUNCTION      0.00   602.45     0  02:28           0        7.55       0.308
  WS02004413           JUNCTION      0.00   602.42     0  02:28           0        7.52       0.446
  WS02004405           JUNCTION      0.04   613.55     0  02:24     0.00107        7.68       0.290
  WS02006109           JUNCTION      1.23   636.36     0  02:18      0.0347        7.85       0.285
  WS02006110           JUNCTION      0.00   636.50     0  02:18           0        7.83       0.274
  WS02006111           JUNCTION      0.00   653.62     0  02:19           0         7.8       0.067
  WS02006112           JUNCTION     13.93   638.02     0  02:19      0.0356        7.83       0.388
  WS02006113           JUNCTION      0.00   637.83     0  02:18           0        7.81       0.149
  WS02006115           JUNCTION      0.00   657.09     0  02:19           0         7.8       0.307
  WS02006116           JUNCTION      0.00   618.96     0  02:22           0        7.78       0.292
  WS02006230           JUNCTION     10.28   397.59     0  04:52        0.29        6.71       0.240
  WS02006231           JUNCTION      0.00   387.48     0  04:52           0        6.43       0.202
  WS02006232           JUNCTION      0.00   387.47     0  04:51           0        6.45       0.273
  WS02006234           JUNCTION      0.00   387.59     0  04:51           0        6.46       0.157
  WS02006235           JUNCTION      0.00   387.84     0  05:41           0        6.51       0.188
  WS02006238           JUNCTION      0.00   327.90     0  06:10           0        4.69       0.187
  WS02006240           JUNCTION      0.00   331.71     0  06:10           0        4.68       0.335
  WS02006242           JUNCTION      0.00   343.16     0  02:17           0        4.69       0.400
  WS02006243           JUNCTION      0.00   364.22     0  02:16           0        4.69       0.113
  WS02006245           JUNCTION      0.00   377.23     0  02:16           0         4.7       0.318
  WS02006247           JUNCTION      0.00   384.86     0  02:16           0        4.71       0.230
  WS02006248           JUNCTION      0.00   393.47     0  02:15           0        4.72       0.134
  WS02006249           JUNCTION      0.00   471.90     0  02:19           0        5.39       0.306
  WS02006239           JUNCTION      0.00   329.81     0  06:10           0        4.68       0.286
  WS02006251           JUNCTION      0.08   480.81     0  02:20     0.00217        5.43       0.262
  WS02006252           JUNCTION      0.00   400.00     0  02:14           0         5.2       0.010
  WS02006253           JUNCTION      2.10    63.57     0  02:15      0.0046       0.231       3.603
  WS02006256           JUNCTION      0.00   600.00     0  00:00           0        5.47       0.044
  WS02004138           JUNCTION      0.00   380.00     0  05:40           0        7.01       0.071
  WS02004407           JUNCTION      0.00   607.63     0  02:25           0        7.62       0.115
  WS02006228           JUNCTION      0.00   635.29     0  02:18           0        7.84       0.210
  WS02006229           JUNCTION      0.00   646.39     0  02:18           0        7.85       0.174
  WS02006280           JUNCTION      0.00   314.56     0  02:15           0        1.15       0.006
  WS02006284           JUNCTION      0.10   314.53     0  02:14      0.0027        1.16       0.098
  WS02006287           JUNCTION      0.00   314.36     0  02:14           0        1.15       0.063
  WSF200               JUNCTION      0.00   602.26     0  02:28           0        7.47       0.071
  HS02004901           JUNCTION     17.23    17.23     0  02:08      0.0428       0.043       4.264
  HS02004881           JUNCTION      7.00    62.00     0  02:15      0.0187       0.199       0.190
  HS02004876           JUNCTION     11.21    54.98     0  02:14      0.0359       0.181       0.296
  HS02004870           JUNCTION     12.37    44.00     0  02:14      0.0354       0.145       0.073
  HS02004862           JUNCTION     10.13    32.43     0  02:15      0.0411        0.11       0.155
  HS02004856           JUNCTION      9.17    22.37     0  02:14      0.0266      0.0703       2.091
  HS02004852           JUNCTION      0.00    13.77     0  02:15           0      0.0438       0.119
  HS02004848           JUNCTION     20.49    20.49     0  02:17      0.0848      0.0848       0.051
  HS02004842           JUNCTION      0.00     7.49     0  02:26           0       0.054      31.683
  HS02004837           JUNCTION     26.22    32.33     0  02:14       0.241       0.282       0.289
  HS02004830           JUNCTION      0.15    32.45     0  02:14     0.00423       0.272       0.455
  HS02004824           JUNCTION     23.08    55.25     0  02:17       0.111       0.382       0.141
  HS02004817           JUNCTION      0.60    55.85     0  02:18      0.0169       0.398       4.369
  HS02004807           JUNCTION     23.25    77.11     0  02:16      0.0651       0.447       0.955
  HS02004802           JUNCTION      0.00    77.68     0  02:17           0       0.442       0.924
  HS02004799           JUNCTION     17.92   202.47     0  02:12      0.0527        0.62       0.370
  HS02004792           JUNCTION     79.76   184.85     0  02:12       0.227       0.567       0.071
  HS02004788           JUNCTION     26.01   107.44     0  02:12        0.12       0.341       0.113
  HS02004785           JUNCTION      0.15    81.80     0  02:12     0.00423       0.223       0.217
  HS02004777           JUNCTION      0.03    82.20     0  02:11    0.000846       0.223       2.373
  HS02004770           JUNCTION     67.68    83.49     0  02:10       0.183       0.224       1.398
  HS02004480           JUNCTION      0.00   238.90     0  02:13           0       0.727       0.106
  HS02004479           JUNCTION      0.00    37.18     0  02:14           0        0.12       0.614
  HS02004478           JUNCTION      0.00   314.34     0  02:14           0        1.15       0.052
  YS02001745           JUNCTION    118.33   195.32     0  03:39        1.21        1.22       0.439
  YS02001748           JUNCTION      0.04   372.46     0  02:59     0.00127        1.27       1.470
  YS02001751           JUNCTION      0.01   430.59     0  03:14     0.00031        1.24       1.682
  YS02001754           JUNCTION      0.26   215.62     0  02:59     0.00733        1.17       1.976
  YS02001762           JUNCTION      0.00   174.48     0  02:29           0        1.32       1.605
  YS02001765           JUNCTION      0.00   177.78     0  02:29           0        1.32       1.860
  YS02001767           JUNCTION      0.54   171.16     0  02:55      0.0151        1.34       2.702
  YS02001770           JUNCTION    151.59   189.08     0  02:34        1.39        1.41       2.252
  YS02001774           JUNCTION      0.00    57.03     0  02:11           0      0.0848      41.782
  YS02001779           JUNCTION      0.01    53.83     0  02:34    0.000141      0.0364      73.681
  YS02001882           JUNCTION      0.00     7.28     0  02:50           0     0.00859      27.413
  YS02001884           JUNCTION      0.00    16.58     0  02:09           0      0.0311      20.239
  YS02001759           JUNCTION    148.12   318.10     0  02:40        1.29        2.57       0.886
  YS02001887           JUNCTION    194.45   198.41     0  02:41        1.52        1.54       0.494
  YS02001890           JUNCTION      0.00   197.02     0  02:40           0         1.5       0.551
  YS02001898           JUNCTION      0.00   200.41     0  02:39           0        1.49       0.170
  YS02001901           JUNCTION      0.00   200.86     0  02:48           0        1.49       0.398
  YS02001904           JUNCTION      0.00   202.11     0  02:43           0        1.49       0.369
  YS02001907           JUNCTION      0.00   375.26     0  02:43           0        3.22       0.708
  YS02001910           JUNCTION      0.00   174.30     0  02:55           0        1.74       0.613
  YS02001915           JUNCTION    105.81   167.38     0  02:54        1.02        1.75       0.287
  YS02001918           JUNCTION      0.00    56.64     0  02:55           0       0.727       0.188
  YS02001619           JUNCTION    102.94   121.05     0  02:36        1.01        1.01       1.133
  YS02001629           JUNCTION      0.00   196.27     0  03:36           0       0.947       2.899
  YS02001641           JUNCTION      0.00   287.47     0  02:31           0        2.03       1.022
  YS02001644           JUNCTION    112.46   383.72     0  02:31        1.16        3.16       0.811
  YS02001652           JUNCTION      0.00   250.11     0  02:57           0        1.08       1.984
  YS02001655           JUNCTION      0.15   480.88     0  02:54     0.00434        1.18       1.672
  YS02001920           JUNCTION      2.87    54.05     0  03:01      0.0809       0.729       0.319
  YS02001923           JUNCTION      0.04    51.18     0  03:01     0.00106       0.649       0.057
  YS02001926           JUNCTION      0.05    51.21     0  03:01     0.00147        0.65       0.397
  YS02001929           JUNCTION     51.17    51.17     0  03:01       0.649       0.649       0.056
  YS02001658           JUNCTION      0.00   441.34     0  02:57           0        1.25       1.168
  YS02001661           JUNCTION      0.00   305.97     0  04:38           0        1.54       0.442
  YS02001664           JUNCTION    138.08   268.06     0  04:37        1.12        1.49       0.081
  YS02001622           JUNCTION      0.00   194.79     0  02:38           0        1.01       3.164
  YS02001633           JUNCTION    114.31   284.02     0  02:30        1.19        2.09       1.525
  YS02001649           JUNCTION      0.00   563.58     0  02:57           0        4.15       0.903
  YS02001757           JUNCTION      0.00   943.93     0  02:29           0        7.77       1.185
  YS02001895           JUNCTION      0.00   198.76     0  02:39           0         1.5       0.274
  YS02001625           JUNCTION      0.00   196.67     0  03:36           0       0.983       4.111
  YS02163301           JUNCTION      0.00   186.05     0  02:30           0        0.93       2.586
  YS02163601           JUNCTION      0.11   286.39     0  02:31      0.0031        2.05       1.459
  YS02164001           JUNCTION      0.00   289.79     0  02:31           0        2.03       0.943
  YS02001647           JUNCTION      0.00   378.01     0  02:31           0        3.12       0.835
  YSB1154              JUNCTION     19.93    19.93     0  02:12      0.0639      0.0652       2.264
  YSB6556              JUNCTION      0.00    19.93     0  02:14           0      0.0661       1.924
  YSB1174              JUNCTION     19.54    19.54     0  02:07      0.0464      0.0474       2.783
  YSB1171              JUNCTION      0.00    37.13     0  02:13           0       0.119       5.611
  YS02006553           JUNCTION      0.00   369.01     0  02:50           0        3.21       0.458
  YS02006561           JUNCTION      0.00   571.01     0  02:44           0        4.55       0.004
  YS02006556           JUNCTION      0.00   371.70     0  02:50           0        3.22       0.331
  YS02006558           JUNCTION    164.51   539.60     0  02:48        1.39        4.58       0.114
  YS02001783           JUNCTION      0.00   529.95     0  02:43           0        4.55       0.039
  YS02001784           JUNCTION      1.06   525.14     0  02:43      0.0299        4.57       0.063
  YS02001786           JUNCTION      0.06   520.96     0  02:48     0.00159        4.57       0.062
  YS02001788           JUNCTION      0.07   520.88     0  02:48       0.002        4.57       0.034
  YS02001790           JUNCTION      0.15   522.25     0  02:49     0.00437        4.57       0.044
  YS02001791           JUNCTION      0.00   520.39     0  02:49           0        4.57       0.018
  YS02001793           JUNCTION      0.00   780.29     0  03:00           0        4.58      -0.068
  WS02004139           JUNCTION      0.32   380.32     0  05:42     0.00905        7.02       0.564
  WSC                  OUTFALL       0.00   907.43     0  02:54           0        14.9       0.000
  3                    OUTFALL       0.00   597.65     0  00:00           0        3.62       0.000
  4                    OUTFALL       0.00   212.72     0  02:20           0       0.653       0.000
  5                    OUTFALL       0.00     0.00     0  00:00           0           0       0.000 ltr
  JK-storage           STORAGE       0.00  1121.83     0  02:59           0        4.73     -13.651
  CC-storage           STORAGE       0.00   941.74     0  02:29           0        7.68       0.057
  XR-storage           STORAGE     391.57   391.57     0  02:47        7.67        8.27      -0.001
  
  
  **********************
  Node Surcharge Summary
  **********************
  
  Surcharging occurs when water rises above the top of the highest conduit.
  ---------------------------------------------------------------------
                                               Max. Height   Min. Depth
                                   Hours       Above Crown    Below Rim
  Node                 Type      Surcharged         Meters       Meters
  ---------------------------------------------------------------------
  WS02004404           JUNCTION        0.12          0.021        2.759
  WS02004405           JUNCTION        0.03          0.004        2.796
  WS02006109           JUNCTION        2.71          0.286        1.534
  WS02006110           JUNCTION        0.38          0.124        1.726
  WS02006112           JUNCTION        0.70          0.202        1.478
  WS02006230           JUNCTION        0.14          0.228        1.342
  WS02006231           JUNCTION        0.23          0.438        1.092
  WS02006232           JUNCTION        2.99          0.404        1.076
  WS02006234           JUNCTION        0.61          0.347        0.893
  WS02006235           JUNCTION        1.99          0.346        0.944
  WS02006238           JUNCTION        2.65          0.356        1.074
  WS02006240           JUNCTION        0.46          0.455        0.935
  WS02006242           JUNCTION        2.05          0.572        0.248
  WS02006243           JUNCTION        0.10          0.684        0.086
  WS02006245           JUNCTION        0.01          0.137        0.713
  WS02006247           JUNCTION        0.02          0.502        0.258
  WS02006239           JUNCTION        0.80          0.440        0.850
  WS02006252           JUNCTION        3.02          0.193        0.907
  WS02006256           JUNCTION        0.01          1.050        0.000
  WS02006228           JUNCTION        2.42          0.335        1.865
  YS02001748           JUNCTION        2.59          0.193        0.997
  YS02001751           JUNCTION        4.13          0.682        0.518
  YS02001754           JUNCTION        4.95          0.695        0.455
  YS02001762           JUNCTION        5.46          0.964        0.186
  YS02001765           JUNCTION        5.41          0.913        0.187
  YS02001767           JUNCTION        5.30          0.879        0.151
  YS02001770           JUNCTION        5.25          0.845        0.075
  YS02001774           JUNCTION        5.44          0.948        0.102
  YS02001779           JUNCTION        4.79          0.680        0.000
  YS02001759           JUNCTION        5.47          0.993        0.217
  YS02001619           JUNCTION        3.95          0.500        0.110
  YS02001629           JUNCTION        3.95          0.470        0.000
  YS02001641           JUNCTION        5.43          0.934        0.166
  YS02001644           JUNCTION        5.42          0.920        0.000
  YS02001652           JUNCTION        5.09          1.040        0.090
  YS02001655           JUNCTION        4.23          1.200        0.000
  YS02001658           JUNCTION        2.62          0.304        0.996
  YS02001622           JUNCTION        4.04          0.515        0.105
  YS02001633           JUNCTION        5.38          0.925        0.135
  YS02001649           JUNCTION        5.46          0.975        0.075
  YS02001757           JUNCTION        5.52          1.097        0.113
  YS02001625           JUNCTION        5.22          0.780        0.000
  YS02163301           JUNCTION        5.30          0.887        0.143
  YS02163601           JUNCTION        5.46          0.989        0.091
  YS02164001           JUNCTION        5.40          0.923        0.177
  YS02001647           JUNCTION        5.20          0.752        0.148
  YS02001790           JUNCTION        0.01          0.264        0.893
  YS02001791           JUNCTION        0.08          0.247        1.673
  YS02001793           JUNCTION        0.32          2.023        0.577
  
  
  *********************
  Node Flooding Summary
  *********************
  
  Flooding refers to all water that overflows a node, whether it ponds or not.
  --------------------------------------------------------------------------
                                                             Total   Maximum
                                 Maximum   Time of Max       Flood    Ponded
                        Hours       Rate    Occurrence      Volume     Depth
  Node                 Flooded       LPS   days hr:min    10^6 ltr    Meters
  --------------------------------------------------------------------------
  WS02006256              0.01    406.11      0  00:00       0.001     0.000
  YS02001779              0.01      4.69      0  03:05       0.000     0.000
  YS02001629              0.01      1.63      0  06:11       0.000     0.000
  YS02001644              0.15      9.83      0  05:32       0.002     0.000
  YS02001655              0.01    184.62      0  03:04       0.001     0.000
  YS02001625              0.03    104.94      0  02:36       0.001     0.000
  XR-storage              1.74    188.15      0  03:05       0.414     0.000
  
  
  **********************
  Storage Volume Summary
  **********************
  
  --------------------------------------------------------------------------------------------------
                         Average     Avg  Evap Exfil       Maximum     Max    Time of Max    Maximum
                          Volume    Pcnt  Pcnt  Pcnt        Volume    Pcnt     Occurrence    Outflow
  Storage Unit           1000 m3    Full  Loss  Loss       1000 m3    Full    days hr:min        LPS
  --------------------------------------------------------------------------------------------------
  JK-storage               0.066      23     0     0         0.279      96       0  03:55     600.00
  CC-storage               2.419      15     0     0         3.691      24       0  05:32     400.00
  XR-storage               0.812      88     0     0         0.926     100       0  03:05     380.00
  
  
  ***********************
  Outfall Loading Summary
  ***********************
  
  -----------------------------------------------------------
                         Flow       Avg       Max       Total
                         Freq      Flow      Flow      Volume
  Outfall Node           Pcnt       LPS       LPS    10^6 ltr
  -----------------------------------------------------------
  WSC                   99.99    614.40    907.43      14.903
  3                     89.44    211.01    597.65       3.618
  4                     53.79     54.18    212.72       0.653
  5                      0.00      0.00      0.00       0.000
  -----------------------------------------------------------
  System                60.81    879.59   1350.11      19.174
  
  
  ********************
  Link Flow Summary
  ********************
  
  -----------------------------------------------------------------------------
                                 Maximum  Time of Max   Maximum    Max/    Max/
                                  |Flow|   Occurrence   |Veloc|    Full    Full
  Link                 Type          LPS  days hr:min     m/sec    Flow   Depth
  -----------------------------------------------------------------------------
  WS02003066WSF200     CONDUIT    602.26     0  02:28      2.91    0.10    0.24
  WS02006287WS02006284 CONDUIT    314.44     0  02:14      1.87    0.15    0.27
  WS02006284WS02006280 CONDUIT    314.56     0  02:15      2.11    0.13    0.25
  WS02006280WS02006229 CONDUIT    314.57     0  02:15      3.39    0.07    0.18
  WS02006229WS02006228 CONDUIT    635.29     0  02:18      1.26    2.10    1.00
  WS02006256WS02006235 CONDUIT    177.52     0  00:01      2.73    1.88    1.00
  WS02006253WS02006251 CONDUIT     84.91     0  02:20      0.57    0.25    1.00
  WS02006252WS02006251 CONDUIT    400.87     0  04:40      3.19    1.47    1.00
  WS02006251WS02006249 CONDUIT    471.90     0  02:19      1.29    1.36    0.96
  WS02006249WS02006248 CONDUIT    393.47     0  02:15      1.29    2.16    0.92
  WS02006248WS02006247 CONDUIT    384.86     0  02:16      1.25    0.84    0.98
  WS02006247WS02006245 CONDUIT    377.23     0  02:16      1.22    2.99    1.00
  WS02006245WS02006243 CONDUIT    364.22     0  02:16      1.25    1.08    1.00
  WS02006243WS02006242 CONDUIT    343.16     0  02:17      1.04    0.73    1.00
  WS02006242WS02006240 CONDUIT    331.71     0  06:10      0.95    1.32    1.00
  WS02006240WS02006239 CONDUIT    329.81     0  06:10      0.99    1.04    1.00
  WS02006239WS02006238 CONDUIT    327.90     0  06:10      0.90    1.05    1.00
  WS02006238WS02006235 CONDUIT    325.97     0  06:10      1.32    0.73    1.00
  WS02006235WS02006234 CONDUIT    387.59     0  04:51      1.04    4.09    1.00
  WS02006234WS02006232 CONDUIT    387.47     0  04:51      1.17    0.78    1.00
  WS02006232WS02006231 CONDUIT    387.48     0  04:52      1.06    0.81    1.00
  WS02006231WS02006230 CONDUIT    387.31     0  04:52      1.35    5.88    1.00
  WS02006230WS02006229 CONDUIT    397.48     0  04:52      1.03    8.85    1.00
  WS02006228WS02006109 CONDUIT    635.13     0  02:18      1.26    2.78    1.00
  WS02006116WS02004401 CONDUIT    611.24     0  02:22      0.86    0.84    0.90
  WS02006115WS02006116 CONDUIT    618.96     0  02:22      0.98    0.79    0.83
  WS02006113WS02006111 CONDUIT    653.62     0  02:19      2.60    0.78    0.50
  WS02006112WS02006115 CONDUIT    657.09     0  02:19      0.91    0.39    0.90
  WS02006111WS02006112 CONDUIT    627.45     0  02:19      1.70    0.30    0.69
  WS02006110WS02006113 CONDUIT    637.83     0  02:18      1.48    0.58    0.81
  WS02006109WS02006110 CONDUIT    636.50     0  02:18      1.27    1.22    1.00
  WS02004411WS02004412 CONDUIT    602.45     0  02:28      0.98    0.86    0.73
  WS02004401WS02004402 CONDUIT    609.25     0  02:24      0.82    0.73    0.92
  WS02004413WS02003067 CONDUIT    602.23     0  02:28      1.18    0.26    0.62
  WS02004412WS02004413 CONDUIT    602.42     0  02:28      0.88    0.40    0.81
  WS02004410WS02004411 CONDUIT    603.20     0  02:27      1.00    0.82    0.73
  WS02004409WS02004410 CONDUIT    604.08     0  02:26      1.04    0.78    0.72
  WS02004407WS02004409 CONDUIT    607.34     0  02:25      1.58    0.22    0.51
  WS02004406WS02004407 CONDUIT    607.63     0  02:25      1.12    0.27    0.65
  WS02004405WS02004406 CONDUIT    608.91     0  02:24      0.78    1.20    1.00
  WS02004404WS02004405 CONDUIT    613.51     0  02:24      0.78    6.01    1.00
  WS02004403WS02004404 CONDUIT    609.95     0  02:24      0.78    0.44    0.97
  WS02004402WS02004403 CONDUIT    608.25     0  02:24      0.79    0.87    0.94
  WS02004139WS02001211 CONDUIT    379.42     0  05:50      0.80    0.48    0.59
  WS02004138WS02004139 CONDUIT    380.00     0  05:42      3.34    0.08    0.43
  WS02003067WS02003066 CONDUIT    602.31     0  02:28      1.29    0.19    0.43
  WS02001213WS02003059 CONDUIT    384.10     0  05:51      0.80    0.63    0.76
  WS02001212WS02001213 CONDUIT    385.01     0  05:50      1.31    0.59    0.46
  WS02001211WS02001212 CONDUIT    385.77     0  05:50      0.77    0.29    0.64
  WS02003072WS02003073 CONDUIT    906.24     0  02:53      1.71    1.96    0.48
  WS02003069WS02003072 CONDUIT    906.66     0  02:53      1.60    0.44    0.50
  WS02003060WS02003069 CONDUIT    906.99     0  02:52      1.85    0.36    0.45
  WS02003059WS02003060 CONDUIT    383.21     0  05:51      0.92    0.25    0.65
  HS02004901HS02004770 CONDUIT     16.17     0  02:11      0.06    0.06    0.38
  HS02004876HS02004881 CONDUIT     55.67     0  02:15      0.81    0.59    0.10
  HS02004870HS02004876 CONDUIT     43.97     0  02:15      0.55    0.03    0.11
  HS02004842HS02004848 CONDUIT      7.49     0  02:26      0.04    0.00    0.29
  HS02004837HS02004842 CONDUIT      7.78     0  02:27      0.41    0.00    0.30
  HS02004830HS02004837 CONDUIT     32.30     0  02:14      0.50    0.03    0.09
  HS02004824HS02004830 CONDUIT     32.45     0  02:15      0.54    0.04    0.09
  HS02004817HS02004824 CONDUIT     55.25     0  02:18      0.18    0.02    0.44
  HS02004770HS02004777 CONDUIT     82.17     0  02:11      0.30    0.15    0.39
  HS02004799HS02004480 CONDUIT    202.18     0  02:12      0.74    0.26    0.39
  HS02004792HS02004799 CONDUIT    184.73     0  02:12      0.84    0.11    0.31
  HS02004788HS02004792 CONDUIT    107.35     0  02:13      0.97    0.07    0.16
  HS02004785HS02004788 CONDUIT     81.70     0  02:13      0.63    0.62    0.18
  HS02004777HS02004785 CONDUIT     81.65     0  02:12      0.36    0.10    0.32
  HS02004480HS02004478 CONDUIT    238.82     0  02:13      1.15    1.01    0.30
  HS02004479HS02004480 CONDUIT     37.50     0  02:15      0.16    0.04    0.38
  HS02004862HS02004870 CONDUIT     32.39     0  02:15      0.56    0.03    0.08
  HS02004848HS02004852 CONDUIT     13.77     0  02:15      0.38    0.02    0.05
  HS02004856HS02004862 CONDUIT     22.33     0  02:15      0.42    0.02    0.08
  HS02004852HS02004856 CONDUIT     13.72     0  02:16      0.18    0.02    0.11
  HS02004802HS02004478 CONDUIT     78.37     0  02:17      0.37    0.07    0.31
  HS02004478WS02006287 CONDUIT    314.36     0  02:14      1.57    0.09    0.22
  HS02004817HS02004807 CONDUIT     56.81     0  02:19      0.14    0.03    0.57
  HS02004807HS02004802 CONDUIT     77.68     0  02:17      0.31    0.15    0.36
  YS02001759YS02001757 CONDUIT    318.73     0  02:35      0.41    0.23    1.00
  YS02001762YS02001759 CONDUIT    173.52     0  02:29      0.22    0.20    1.00
  YS02001765YS02001762 CONDUIT    174.48     0  02:29      0.23    0.16    1.00
  YS02001770YS02001767 CONDUIT    170.63     0  02:55      0.32    0.68    1.00
  YS02001774YS02001770 CONDUIT     57.03     0  02:11      0.14    0.04    1.00
  YS02001779YS02001774 CONDUIT     53.83     0  02:34      0.09    0.03    1.00
  YS02001649YS02001757 CONDUIT    564.87     0  02:31      0.72    0.34    1.00
  YS02001767YS02001765 CONDUIT    177.78     0  02:29      0.26    0.22    1.00
  YS02006561YS02001783 CONDUIT    529.95     0  02:43      2.03    0.27    0.52
  YS02001783YS02001784 CONDUIT    524.08     0  02:43      1.46    0.72    0.67
  YS02001784YS02001785 CONDUIT    520.91     0  02:48      1.57    1.21    0.63
  YS02001788YS02001790 CONDUIT    522.10     0  02:49      2.12    0.38    0.74
  YS02001790YS02001791 CONDUIT    520.39     0  02:49      2.50    0.57    1.00
  YS02001791YS02001793 CONDUIT    728.67     0  03:00      5.12    0.31    1.00
  YS02001910YS02001907 CONDUIT    173.91     0  02:55      0.49    0.10    0.87
  YS02001786YS02001788 CONDUIT    520.81     0  02:48      2.02    1.00    0.53
  YS02001915YS02001910 CONDUIT    174.30     0  02:55      0.45    0.09    0.66
  YS02001918YS02001915 CONDUIT     61.95     0  02:54      0.44    0.03    0.38
  YS02001923YS02001920 CONDUIT     51.18     0  03:01      0.54    0.02    0.19
  YS02001926YS02001923 CONDUIT     51.14     0  03:01      0.60    0.07    0.17
  YS02001929YS02001926 CONDUIT     51.16     0  03:01      0.64    0.02    0.16
  YS02001920YS02001918 CONDUIT     56.64     0  02:55      0.54    0.05    0.24
  YS02001629YS02163301 CONDUIT    186.05     0  02:30      0.24    0.23    1.00
  YS02001619YS02001622 CONDUIT    194.79     0  02:38      0.74    0.29    1.00
  YS02001622YS02001625 CONDUIT    196.67     0  03:36      0.31    0.10    1.00
  YS02001625YS02001629 CONDUIT    196.27     0  03:36      0.30    0.09    1.00
  YS02163301YS02001633 CONDUIT    179.47     0  02:30      0.23    0.17    1.00
  YS02163601YS02164001 CONDUIT    289.79     0  02:31      0.37    0.26    1.00
  YS02164001YS02001641 CONDUIT    287.47     0  02:31      0.37    0.39    1.00
  YS02001641YS02001644 CONDUIT    279.59     0  02:31      0.36    0.90    1.00
  YS02001647YS02001649 CONDUIT    444.45     0  02:31      0.59    0.23    1.00
  YS02006553YS02006556 CONDUIT    371.70     0  02:50      0.48    0.32    0.95
  YS02006556YS02006558 CONDUIT    377.16     0  02:48      0.48    0.30    0.98
  YSB6556YSB1171       CONDUIT     20.34     0  02:15      0.08    0.02    0.65
  YS02001907YS02006553 CONDUIT    369.01     0  02:50      0.41    0.43    1.00
  YS02006558YS02006561 CONDUIT    571.01     0  02:44      2.90    1.26    0.66
  YS02001633YS02163601 CONDUIT    286.28     0  02:31      0.36    0.30    1.00
  YS02001644YS02001647 CONDUIT    378.01     0  02:31      0.51    0.22    1.00
  YS02001745YS02001748 CONDUIT    244.73     0  03:33      1.56    0.09    0.91
  YS02001748YS02001751 CONDUIT    430.58     0  03:14      1.21    0.22    1.00
  YS02001751YS02001754 CONDUIT    215.36     0  02:59      1.05    0.10    1.00
  YS02001754YS02001757 CONDUIT    224.13     0  03:06      0.33    0.09    1.00
  YS02001882YS02001884 CONDUIT      7.28     0  02:50      0.06    0.01    0.60
  YS02001884YS02001887 CONDUIT     16.58     0  02:09      0.07    0.02    0.69
  YS02001890YS02001895 CONDUIT    198.76     0  02:39      0.36    0.09    0.66
  YS02001895YS02001898 CONDUIT    200.41     0  02:39      0.51    0.35    0.52
  YS02001898YS02001901 CONDUIT    200.86     0  02:48      0.41    0.13    0.60
  YS02001901YS02001904 CONDUIT    202.11     0  02:43      0.38    0.31    0.66
  YS02001904YS02001907 CONDUIT    207.33     0  02:43      0.31    0.07    0.82
  YS02001887YS02001890 CONDUIT    197.02     0  02:40      0.32    0.34    0.75
  YS02001652YS02001649 CONDUIT    254.13     0  02:31      0.36    0.13    1.00
  YS02001655YS02001652 CONDUIT    250.11     0  02:57      1.11    0.12    1.00
  YS02001658YS02001655 CONDUIT    480.72     0  02:54      1.40    0.20    1.00
  YS02001661YS02001658 CONDUIT    330.66     0  03:27      1.63    0.13    0.96
  YS02001664YS02001661 CONDUIT    305.97     0  04:38      1.38    0.10    0.68
  YSB1154YSB6556       CONDUIT     19.93     0  02:14      0.19    0.04    0.54
  YSB1174YSB1171       CONDUIT     18.16     0  02:08      0.07    0.03    0.66
  YSB1171HS02004479    CONDUIT     37.18     0  02:14      0.54    0.02    0.51
  HS02004881HS02006253 CONDUIT     61.99     0  02:15      1.98    0.01    0.30
  YS02001793JiankangQianchi CONDUIT   1121.83     0  02:59     15.03    0.09    1.00
  YS02001757CaochengTiaoxuchi CONDUIT    941.74     0  02:29      2.23    0.41    1.00
  WSF200WS02003060     CONDUIT    601.06     0  02:28      2.10    0.13    0.33
  1                    CONDUIT    907.43     0  02:54      3.24    0.32    0.39
  2                    CONDUIT    212.72     0  02:20      5.93    0.51    0.51
  3                    CONDUIT    597.65     0  00:00     10.05    0.95    0.86
  4                    CONDUIT      0.00     0  00:00      0.00    0.00    0.00
  CC-Pump-1            PUMP       200.00     0  02:14              1.00
  CC-Pump-2            PUMP       200.00     0  02:14              1.00
  JK-Pump-1            PUMP       300.00     0  00:00              1.00
  JK-Pump-2            PUMP       300.00     0  00:00              1.00
  XR-Pump-1            PUMP        95.00     0  00:00              1.00
  XR-Pump-2            PUMP        95.00     0  00:00              1.00
  XR-Pump-3            PUMP        95.00     0  00:00              1.00
  XR-Pump-4            PUMP        95.00     0  00:30              1.00
  
  
  ***************************
  Flow Classification Summary
  ***************************
  
  -------------------------------------------------------------------------------------
                      Adjusted    ---------- Fraction of Time in Flow Class ---------- 
                       /Actual         Up    Down  Sub   Sup   Up    Down  Norm  Inlet 
  Conduit               Length    Dry  Dry   Dry   Crit  Crit  Crit  Crit  Ltd   Ctrl  
  -------------------------------------------------------------------------------------
  WS02003066WSF200        1.00   0.06  0.01  0.00  0.00  0.93  0.00  0.00  0.61  0.00
  WS02006287WS02006284    1.00   0.03  0.01  0.00  0.65  0.30  0.00  0.00  0.76  0.00
  WS02006284WS02006280    1.00   0.04  0.00  0.00  0.00  0.00  0.00  0.96  0.00  0.00
  WS02006280WS02006229    1.00   0.04  0.00  0.00  0.00  0.00  0.00  0.96  0.00  0.00
  WS02006229WS02006228    1.00   0.00  0.00  0.00  0.98  0.00  0.00  0.02  0.00  0.00
  WS02006256WS02006235    1.00   0.00  0.00  0.00  0.99  0.00  0.00  0.00  0.00  0.00
  WS02006253WS02006251    1.00   0.02  0.01  0.00  0.96  0.00  0.00  0.00  0.00  0.00
  WS02006252WS02006251    1.00   0.07  0.00  0.00  0.00  0.00  0.93  0.00  0.00  0.00
  WS02006251WS02006249    1.00   0.00  0.00  0.00  1.00  0.00  0.00  0.00  0.26  0.00
  WS02006249WS02006248    1.00   0.00  0.02  0.00  0.90  0.00  0.08  0.00  0.00  0.00
  WS02006248WS02006247    1.00   0.02  0.00  0.00  0.97  0.00  0.00  0.01  0.17  0.00
  WS02006247WS02006245    1.00   0.02  0.00  0.00  0.96  0.00  0.00  0.02  0.00  0.00
  WS02006245WS02006243    1.00   0.02  0.00  0.00  0.93  0.00  0.00  0.05  0.02  0.00
  WS02006243WS02006242    1.00   0.01  0.00  0.00  0.99  0.00  0.00  0.00  0.28  0.00
  WS02006242WS02006240    1.00   0.01  0.00  0.00  0.99  0.00  0.00  0.00  0.00  0.00
  WS02006240WS02006239    1.00   0.00  0.00  0.00  0.95  0.00  0.00  0.04  0.02  0.00
  WS02006239WS02006238    1.00   0.00  0.00  0.00  1.00  0.00  0.00  0.00  0.00  0.00
  WS02006238WS02006235    1.00   0.00  0.00  0.00  1.00  0.00  0.00  0.00  0.00  0.00
  WS02006235WS02006234    1.00   0.00  0.00  0.00  0.95  0.00  0.05  0.00  0.00  0.00
  WS02006234WS02006232    1.00   0.00  0.00  0.00  1.00  0.00  0.00  0.00  0.04  0.00
  WS02006232WS02006231    1.00   0.00  0.00  0.00  0.99  0.00  0.01  0.00  0.00  0.00
  WS02006231WS02006230    1.00   0.00  0.00  0.00  0.66  0.00  0.33  0.00  0.00  0.00
  WS02006230WS02006229    1.00   0.00  0.00  0.00  0.98  0.00  0.00  0.02  0.01  0.00
  WS02006228WS02006109    1.00   0.00  0.00  0.00  1.00  0.00  0.00  0.00  0.00  0.00
  WS02006116WS02004401    1.00   0.02  0.00  0.00  0.98  0.00  0.00  0.00  0.00  0.00
  WS02006115WS02006116    1.00   0.02  0.00  0.00  0.97  0.00  0.00  0.01  0.01  0.00
  WS02006113WS02006111    1.00   0.02  0.00  0.00  0.00  0.98  0.00  0.00  0.11  0.00
  WS02006112WS02006115    1.00   0.02  0.00  0.00  0.98  0.00  0.00  0.00  0.00  0.00
  WS02006111WS02006112    1.00   0.02  0.00  0.00  0.98  0.00  0.00  0.00  0.97  0.00
  WS02006110WS02006113    1.00   0.02  0.00  0.00  0.98  0.00  0.00  0.00  0.00  0.00
  WS02006109WS02006110    1.00   0.00  0.01  0.00  0.98  0.00  0.00  0.00  0.00  0.00
  WS02004411WS02004412    1.00   0.05  0.00  0.00  0.95  0.00  0.00  0.00  0.00  0.00
  WS02004401WS02004402    1.00   0.02  0.00  0.00  0.98  0.00  0.00  0.00  0.00  0.00
  WS02004413WS02003067    1.00   0.05  0.01  0.00  0.00  0.00  0.94  0.00  0.00  0.00
  WS02004412WS02004413    1.00   0.05  0.00  0.00  0.95  0.00  0.00  0.00  0.03  0.00
  WS02004410WS02004411    1.00   0.05  0.00  0.00  0.95  0.00  0.00  0.00  0.00  0.00
  WS02004409WS02004410    1.00   0.05  0.00  0.00  0.95  0.00  0.00  0.00  0.00  0.00
  WS02004407WS02004409    1.00   0.05  0.00  0.00  0.95  0.00  0.00  0.00  0.80  0.00
  WS02004406WS02004407    1.00   0.00  0.05  0.00  0.95  0.00  0.00  0.00  0.00  0.00
  WS02004405WS02004406    1.00   0.00  0.00  0.00  1.00  0.00  0.00  0.00  0.02  0.00
  WS02004404WS02004405    1.00   0.00  0.00  0.00  1.00  0.00  0.00  0.00  0.00  0.00
  WS02004403WS02004404    1.00   0.00  0.02  0.00  0.98  0.00  0.00  0.00  0.02  0.00
  WS02004402WS02004403    1.00   0.02  0.00  0.00  0.98  0.00  0.00  0.00  0.00  0.00
  WS02004139WS02001211    1.00   0.00  0.00  0.00  0.99  0.00  0.01  0.00  0.00  0.00
  WS02004138WS02004139    1.00   0.00  0.00  0.00  0.99  0.01  0.00  0.00  1.00  0.00
  WS02003067WS02003066    1.00   0.06  0.01  0.00  0.93  0.00  0.00  0.00  0.00  0.00
  WS02001213WS02003059    1.00   0.00  0.00  0.00  0.99  0.00  0.00  0.00  0.00  0.00
  WS02001212WS02001213    1.00   0.01  0.00  0.00  0.85  0.00  0.14  0.00  0.00  0.00
  WS02001211WS02001212    1.00   0.00  0.00  0.00  1.00  0.00  0.00  0.00  0.00  0.00
  WS02003072WS02003073    1.00   0.00  0.00  0.00  0.00  0.00  0.00  1.00  0.00  0.00
  WS02003069WS02003072    1.00   0.00  0.00  0.00  0.99  0.01  0.00  0.00  0.25  0.00
  WS02003060WS02003069    1.00   0.00  0.00  0.00  0.99  0.01  0.00  0.00  0.12  0.00
  WS02003059WS02003060    1.00   0.00  0.00  0.00  0.99  0.01  0.00  0.00  0.01  0.00
  HS02004901HS02004770    1.00   0.04  0.00  0.00  0.96  0.00  0.00  0.00  0.02  0.00
  HS02004876HS02004881    1.00   0.02  0.00  0.00  0.98  0.00  0.00  0.00  0.00  0.00
  HS02004870HS02004876    1.00   0.01  0.00  0.00  0.99  0.00  0.00  0.00  0.95  0.00
  HS02004842HS02004848    1.00   0.00  0.04  0.00  0.96  0.00  0.00  0.00  0.67  0.00
  HS02004837HS02004842    1.00   0.00  0.00  0.00  0.99  0.01  0.00  0.00  0.11  0.00
  HS02004830HS02004837    1.00   0.00  0.00  0.00  1.00  0.00  0.00  0.00  0.99  0.00
  HS02004824HS02004830    1.00   0.00  0.00  0.00  1.00  0.00  0.00  0.00  0.00  0.00
  HS02004817HS02004824    1.00   0.00  0.00  0.00  1.00  0.00  0.00  0.00  1.00  0.00
  HS02004770HS02004777    1.00   0.00  0.04  0.00  0.96  0.00  0.00  0.00  0.07  0.00
  HS02004799HS02004480    1.00   0.00  0.02  0.00  0.95  0.00  0.03  0.00  0.00  0.00
  HS02004792HS02004799    1.00   0.00  0.00  0.00  0.99  0.01  0.00  0.00  0.98  0.00
  HS02004788HS02004792    1.00   0.00  0.00  0.00  0.98  0.02  0.00  0.00  0.98  0.00
  HS02004785HS02004788    1.00   0.00  0.00  0.00  1.00  0.00  0.00  0.00  0.00  0.00
  HS02004777HS02004785    1.00   0.00  0.00  0.00  1.00  0.00  0.00  0.00  0.20  0.00
  HS02004480HS02004478    1.00   0.04  0.00  0.00  0.70  0.00  0.00  0.26  0.00  0.00
  HS02004479HS02004480    1.00   0.02  0.00  0.00  0.98  0.00  0.00  0.00  0.15  0.00
  HS02004862HS02004870    1.00   0.00  0.00  0.00  1.00  0.00  0.00  0.00  0.06  0.00
  HS02004848HS02004852    1.00   0.04  0.00  0.00  0.96  0.00  0.00  0.00  0.71  0.00
  HS02004856HS02004862    1.00   0.00  0.06  0.00  0.94  0.00  0.00  0.00  0.75  0.00
  HS02004852HS02004856    1.00   0.04  0.01  0.00  0.96  0.00  0.00  0.00  0.83  0.00
  HS02004802HS02004478    1.00   0.04  0.00  0.00  0.96  0.00  0.00  0.00  0.01  0.00
  HS02004478WS02006287    1.00   0.05  0.00  0.00  0.82  0.13  0.00  0.00  0.73  0.00
  HS02004817HS02004807    1.00   0.00  0.04  0.00  0.96  0.00  0.00  0.00  0.00  0.00
  HS02004807HS02004802    1.00   0.04  0.00  0.00  0.96  0.00  0.00  0.00  0.01  0.00
  YS02001759YS02001757    1.00   0.00  0.00  0.00  1.00  0.00  0.00  0.00  0.17  0.00
  YS02001762YS02001759    1.00   0.00  0.00  0.00  1.00  0.00  0.00  0.00  0.04  0.00
  YS02001765YS02001762    1.00   0.00  0.00  0.00  1.00  0.00  0.00  0.00  0.21  0.00
  YS02001770YS02001767    1.00   0.00  0.00  0.00  1.00  0.00  0.00  0.00  0.00  0.00
  YS02001774YS02001770    1.00   0.00  0.04  0.00  0.95  0.00  0.00  0.00  0.06  0.00
  YS02001779YS02001774    1.00   0.00  0.00  0.00  1.00  0.00  0.00  0.00  0.25  0.00
  YS02001649YS02001757    1.00   0.00  0.00  0.00  1.00  0.00  0.00  0.00  0.19  0.00
  YS02001767YS02001765    1.00   0.00  0.00  0.00  1.00  0.00  0.00  0.00  0.01  0.00
  YS02006561YS02001783    1.00   0.06  0.00  0.00  0.00  0.94  0.00  0.00  0.58  0.00
  YS02001783YS02001784    1.00   0.00  0.06  0.00  0.94  0.00  0.00  0.00  0.00  0.00
  YS02001784YS02001785    1.00   0.00  0.00  0.00  1.00  0.00  0.00  0.00  0.24  0.00
  YS02001788YS02001790    1.00   0.00  0.00  0.00  0.08  0.92  0.00  0.00  0.68  0.00
  YS02001790YS02001791    1.00   0.00  0.00  0.00  0.06  0.94  0.00  0.00  0.62  0.00
  YS02001791YS02001793    1.00   0.00  0.00  0.00  0.08  0.92  0.00  0.00  0.03  0.00
  YS02001910YS02001907    1.00   0.00  0.00  0.00  0.98  0.00  0.00  0.02  0.13  0.00
  YS02001786YS02001788    1.00   0.00  0.00  0.00  0.08  0.92  0.00  0.00  0.00  0.00
  YS02001915YS02001910    1.00   0.00  0.00  0.00  1.00  0.00  0.00  0.00  0.23  0.00
  YS02001918YS02001915    1.00   0.00  0.01  0.00  0.99  0.00  0.00  0.00  0.67  0.00
  YS02001923YS02001920    1.00   0.00  0.00  0.00  1.00  0.00  0.00  0.00  1.00  0.00
  YS02001926YS02001923    1.00   0.00  0.03  0.00  0.00  0.00  0.97  0.00  0.00  0.00
  YS02001929YS02001926    1.00   0.00  0.04  0.00  0.96  0.00  0.00  0.00  0.87  0.00
  YS02001920YS02001918    1.00   0.00  0.01  0.00  0.99  0.00  0.00  0.00  0.00  0.00
  YS02001629YS02163301    1.00   0.05  0.00  0.00  0.94  0.00  0.00  0.00  0.00  0.00
  YS02001619YS02001622    1.00   0.04  0.00  0.00  0.96  0.00  0.00  0.00  0.00  0.00
  YS02001622YS02001625    1.00   0.04  0.00  0.00  0.96  0.00  0.00  0.00  0.12  0.00
  YS02001625YS02001629    1.00   0.04  0.02  0.00  0.93  0.00  0.01  0.00  0.00  0.00
  YS02163301YS02001633    1.00   0.00  0.05  0.00  0.95  0.00  0.00  0.00  0.00  0.00
  YS02163601YS02164001    1.00   0.00  0.03  0.00  0.97  0.00  0.00  0.00  0.00  0.00
  YS02164001YS02001641    1.00   0.01  0.02  0.00  0.97  0.00  0.00  0.00  0.07  0.00
  YS02001641YS02001644    1.00   0.00  0.01  0.00  0.99  0.00  0.00  0.00  0.00  0.00
  YS02001647YS02001649    1.00   0.00  0.06  0.00  0.94  0.00  0.00  0.00  0.01  0.00
  YS02006553YS02006556    1.00   0.02  0.00  0.00  0.98  0.00  0.00  0.00  0.03  0.00
  YS02006556YS02006558    1.00   0.00  0.00  0.00  1.00  0.00  0.00  0.00  0.00  0.00
  YSB6556YSB1171          1.00   0.02  0.01  0.00  0.96  0.00  0.00  0.00  0.00  0.00
  YS02001907YS02006553    1.00   0.00  0.01  0.00  0.98  0.00  0.00  0.00  0.00  0.00
  YS02006558YS02006561    1.00   0.06  0.00  0.00  0.00  0.94  0.00  0.00  0.59  0.00
  YS02001633YS02163601    1.00   0.00  0.01  0.00  0.99  0.00  0.00  0.00  0.19  0.00
  YS02001644YS02001647    1.00   0.00  0.06  0.00  0.94  0.00  0.00  0.00  0.00  0.00
  YS02001745YS02001748    1.00   0.00  0.00  0.00  0.90  0.01  0.00  0.09  0.07  0.00
  YS02001748YS02001751    1.00   0.00  0.00  0.00  0.98  0.02  0.00  0.00  0.22  0.00
  YS02001751YS02001754    1.00   0.00  0.00  0.00  0.93  0.00  0.00  0.07  0.01  0.00
  YS02001754YS02001757    1.00   0.00  0.00  0.00  0.99  0.01  0.00  0.00  0.25  0.00
  YS02001882YS02001884    1.00   0.05  0.00  0.00  0.95  0.00  0.00  0.00  0.00  0.00
  YS02001884YS02001887    1.00   0.03  0.01  0.00  0.97  0.00  0.00  0.00  0.00  0.00
  YS02001890YS02001895    1.00   0.00  0.05  0.00  0.94  0.00  0.00  0.00  0.00  0.00
  YS02001895YS02001898    1.00   0.06  0.00  0.00  0.94  0.00  0.01  0.00  0.00  0.00
  YS02001898YS02001901    1.00   0.05  0.00  0.00  0.94  0.00  0.00  0.00  0.02  0.00
  YS02001901YS02001904    1.00   0.05  0.00  0.00  0.95  0.00  0.00  0.00  0.00  0.00
  YS02001904YS02001907    1.00   0.00  0.05  0.00  0.95  0.00  0.00  0.00  0.00  0.00
  YS02001887YS02001890    1.00   0.00  0.00  0.00  0.98  0.00  0.02  0.00  0.00  0.00
  YS02001652YS02001649    1.00   0.00  0.00  0.00  1.00  0.00  0.00  0.00  0.25  0.00
  YS02001655YS02001652    1.00   0.00  0.00  0.00  0.93  0.00  0.00  0.06  0.01  0.00
  YS02001658YS02001655    1.00   0.00  0.05  0.00  0.93  0.03  0.00  0.00  0.08  0.00
  YS02001661YS02001658    1.00   0.05  0.00  0.00  0.90  0.06  0.00  0.00  0.08  0.00
  YS02001664YS02001661    1.00   0.04  0.00  0.00  0.83  0.14  0.00  0.00  0.40  0.00
  YSB1154YSB6556          1.00   0.04  0.00  0.00  0.96  0.00  0.00  0.00  0.02  0.00
  YSB1174YSB1171          1.00   0.02  0.01  0.00  0.97  0.00  0.00  0.00  0.00  0.00
  YSB1171HS02004479       1.00   0.02  0.00  0.00  0.98  0.00  0.00  0.00  0.13  0.00
  HS02004881HS02006253    1.00   0.02  0.00  0.00  0.79  0.01  0.00  0.17  0.60  0.00
  YS02001793JiankangQianchi    1.00   0.00  0.00  0.00  0.43  0.56  0.00  0.00  0.31  0.00
  YS02001757CaochengTiaoxuchi    1.00   0.00  0.07  0.00  0.91  0.01  0.00  0.00  0.00  0.00
  WSF200WS02003060        1.00   0.00  0.06  0.00  0.77  0.17  0.00  0.00  0.28  0.00
  1                       1.00   0.00  0.00  0.00  0.00  1.00  0.00  0.00  0.31  0.00
  2                       1.00   0.46  0.00  0.00  0.00  0.54  0.00  0.00  0.11  0.00
  3                       1.00   0.11  0.00  0.00  0.00  0.89  0.00  0.00  0.06  0.00
  4                       1.00   1.00  0.00  0.00  0.00  0.00  0.00  0.00  0.00  0.00
  
  
  *************************
  Conduit Surcharge Summary
  *************************
  
  ----------------------------------------------------------------------------
                                                           Hours        Hours 
                         --------- Hours Full --------   Above Full   Capacity
  Conduit                Both Ends  Upstream  Dnstream   Normal Flow   Limited
  ----------------------------------------------------------------------------
  WS02006229WS02006228        2.42      2.84      2.42      4.44         2.41
  WS02006256WS02006235        5.62      5.62      7.54      2.09         0.01
  WS02006253WS02006251        0.01      0.01      0.03      0.01         0.01
  WS02006252WS02006251        1.78      1.78      3.02      2.70         0.01
  WS02006251WS02006249        0.01      0.01      0.01      1.86         0.01
  WS02006249WS02006248        0.01      0.01      0.01      4.37         0.01
  WS02006248WS02006247        0.01      0.01      0.02      0.01         0.01
  WS02006247WS02006245        0.01      0.04      0.01      4.73         0.01
  WS02006245WS02006243        0.02      0.02      0.10      0.07         0.01
  WS02006243WS02006242        0.14      0.14      2.05      0.01         0.01
  WS02006242WS02006240        0.45      0.45      2.63      3.04         0.01
  WS02006240WS02006239        0.62      0.62      0.80      0.03         0.01
  WS02006239WS02006238        2.49      2.49      2.65      0.31         0.33
  WS02006238WS02006235        2.47      2.47      2.95      0.01         0.01
  WS02006235WS02006234        0.61      0.61      1.98      5.62         0.01
  WS02006234WS02006232        0.96      0.96      2.99      0.01         0.01
  WS02006232WS02006231        0.23      0.23      2.99      0.01         0.01
  WS02006231WS02006230        0.14      0.14      0.25      5.64         0.01
  WS02006230WS02006229        3.55      4.25      3.55      5.76         3.54
  WS02006228WS02006109        2.70      3.21      2.70      5.08         2.70
  WS02006112WS02006115        0.01      0.01      0.70      0.01         0.01
  WS02006111WS02006112        0.01      0.01      4.35      0.01         0.01
  WS02006110WS02006113        0.01      0.01      3.02      0.01         0.01
  WS02006109WS02006110        0.38      0.38      3.20      0.38         0.01
  WS02004405WS02004406        0.01      0.03      0.01      0.62         0.01
  WS02004404WS02004405        0.03      0.12      0.03      5.69         0.03
  WS02004403WS02004404        0.01      0.01      0.12      0.01         0.01
  WS02003072WS02003073        0.01      0.01      0.01      5.29         0.01
  HS02004480HS02004478        0.01      0.01      0.01      0.04         0.01
  YS02001759YS02001757        5.47      5.47      5.52      0.01         0.01
  YS02001762YS02001759        5.46      5.46      5.47      0.01         0.01
  YS02001765YS02001762        5.41      5.41      5.46      0.01         0.01
  YS02001770YS02001767        5.29      5.30      5.30      0.01         0.70
  YS02001774YS02001770        5.25      5.25      5.44      0.01         0.01
  YS02001779YS02001774        4.79      4.79      5.44      0.01         0.01
  YS02001649YS02001757        5.46      5.46      5.52      0.01         0.01
  YS02001767YS02001765        5.30      5.30      5.41      0.01         0.01
  YS02001784YS02001785        0.01      0.01      0.01      0.87         0.01
  YS02001788YS02001790        0.01      0.01      0.01      0.01         0.01
  YS02001790YS02001791        0.01      0.01      0.08      0.01         0.01
  YS02001791YS02001793        0.08      0.08      0.40      0.01         0.01
  YS02001786YS02001788        0.01      0.01      0.01      0.01         0.01
  YS02001629YS02163301        5.25      5.25      5.30      0.01         0.01
  YS02001619YS02001622        3.95      3.95      4.04      0.01         0.01
  YS02001622YS02001625        4.04      4.04      5.22      0.01         0.01
  YS02001625YS02001629        3.95      3.95      5.22      0.01         0.01
  YS02163301YS02001633        5.30      5.30      5.42      0.01         0.01
  YS02163601YS02164001        5.40      5.40      5.46      0.01         0.01
  YS02164001YS02001641        5.40      5.40      5.43      0.01         0.01
  YS02001641YS02001644        5.42      5.43      5.42      0.01         0.97
  YS02001647YS02001649        5.20      5.20      5.46      0.01         0.01
  YS02006556YS02006558        0.01      0.01      0.01      0.01         0.01
  YS02001907YS02006553        0.88      0.88      1.10      0.01         0.01
  YS02006558YS02006561        0.01      0.01      0.01      0.69         0.01
  YS02001633YS02163601        5.38      5.38      5.46      0.01         0.01
  YS02001644YS02001647        5.20      5.20      5.42      0.01         0.01
  YS02001745YS02001748        0.01      0.01      2.59      0.01         0.01
  YS02001748YS02001751        3.15      3.15      4.13      0.01         0.01
  YS02001751YS02001754        4.13      4.13      4.95      0.01         0.01
  YS02001754YS02001757        5.19      5.19      5.52      0.01         0.01
  YS02001652YS02001649        5.20      5.20      5.46      0.01         0.01
  YS02001655YS02001652        4.22      4.22      5.09      0.01         0.01
  YS02001658YS02001655        2.61      2.61      4.23      0.01         0.01
  YS02001661YS02001658        0.01      0.01      2.61      0.01         0.01
  YS02001793JiankangQianchi        0.32      0.32      2.31      0.01         0.01
  YS02001757CaochengTiaoxuchi        3.50      3.50      5.52      0.01         0.01
  3                           0.01      0.01      0.01      0.01         0.01
  
  
  ***************
  Pumping Summary
  ***************
  
  ---------------------------------------------------------------------------------------------------------
                                                  Min       Avg       Max     Total     Power    % Time Off
                        Percent   Number of      Flow      Flow      Flow    Volume     Usage    Pump Curve
  Pump                 Utilized   Start-Ups       LPS       LPS       LPS  10^6 ltr     Kw-hr    Low   High
  ---------------------------------------------------------------------------------------------------------
  CC-Pump-1               65.70           7      0.00    136.84    200.00     2.601      5.27    0.0   12.0
  CC-Pump-2               59.32           5      0.00    154.99    200.00     2.601      5.94    0.0   13.3
  JK-Pump-1               91.48           4      0.00    162.80    300.00     2.957     44.49    0.0    0.0
  JK-Pump-2               82.97           6      0.00    147.19    300.00     2.516     37.25    0.0    0.0
  XR-Pump-1               89.34           8      0.00     70.33     95.00     1.767     15.30    0.0    0.0
  XR-Pump-2               82.97           8      0.00     67.45     95.00     1.596     14.14    0.0    0.0
  XR-Pump-3               91.49           6      0.00     70.33     95.00     1.796     16.76    0.0    0.0
  XR-Pump-4               89.36           4      0.00     74.32     95.00     1.852     15.52    0.0    0.0
  

  Analysis begun on:  Tue Dec 21 14:05:08 2021
  Analysis ended on:  Tue Dec 21 14:05:11 2021
  Total elapsed time: 00:00:03