
  EPA STORM WATER MANAGEMENT MODEL - VERSION 5.1 (Build 5.3.0.dev0)
  --------------------------------------------------------------

  WARNING 04: minimum elevation drop used for Conduit WS02004404WS02004405
  WARNING 03: negative offset ignored for Link YS02001904YS02001907
  
  *********************************************************
  NOTE: The summary statistics displayed in this report are
  based on results found at every computational time step,  
  not just on results from each reporting time step.
  *********************************************************
  
  ****************
  Analysis Options
  ****************
  Flow Units ............... LPS
  Process Models:
    Rainfall/Runoff ........ YES
    RDII ................... NO
    Snowmelt ............... NO
    Groundwater ............ NO
    Flow Routing ........... YES
    Ponding Allowed ........ NO
    Water Quality .......... NO
  Infiltration Method ...... HORTON
  Flow Routing Method ...... DYNWAVE
  Surcharge Method ......... EXTRAN
  Starting Date ............ 08/28/2015 08:00:00
  Ending Date .............. 08/28/2015 15:50:00
  Antecedent Dry Days ...... 8.0
  Report Time Step ......... 00:01:00
  Wet Time Step ............ 00:01:00
  Dry Time Step ............ 00:01:00
  Routing Time Step ........ 5.00 sec
  Variable Time Step ....... YES
  Maximum Trials ........... 8
  Number of Threads ........ 4
  Head Tolerance ........... 0.001500 m
  
  
  **************************        Volume         Depth
  Runoff Quantity Continuity     hectare-m            mm
  **************************     ---------       -------
  Total Precipitation ......         2.691         5.892
  Evaporation Loss .........         0.000         0.000
  Infiltration Loss ........         0.676         1.480
  Surface Runoff ...........         1.133         2.480
  Final Storage ............         0.883         1.933
  Continuity Error (%) .....        -0.018
  
  
  **************************        Volume        Volume
  Flow Routing Continuity        hectare-m      10^6 ltr
  **************************     ---------     ---------
  Dry Weather Inflow .......         0.616         6.165
  Wet Weather Inflow .......         1.132        11.321
  Groundwater Inflow .......         0.000         0.000
  RDII Inflow ..............         0.000         0.000
  External Inflow ..........         0.102         1.024
  External Outflow .........         1.766        17.660
  Flooding Loss ............         0.061         0.613
  Evaporation Loss .........         0.000         0.000
  Exfiltration Loss ........         0.000         0.000
  Initial Stored Volume ....         0.076         0.761
  Final Stored Volume ......         0.222         2.219
  Continuity Error (%) .....        -6.342
  
  
  *************************
  Highest Continuity Errors
  *************************
  Node JK-storage (-32.21%)
  Node HS02004842 (28.52%)
  Node YS02001884 (22.89%)
  Node YSB1171 (6.99%)
  Node YS02001774 (6.84%)
  
  
  ***************************
  Time-Step Critical Elements
  ***************************
  Link WS02006252WS02006251 (50.03%)
  Link 3 (33.59%)
  Link WS02006238WS02006235 (8.49%)
  Link WS02006280WS02006229 (1.84%)
  
  
  ********************************
  Highest Flow Instability Indexes
  ********************************
  Link WS02006113WS02006111 (36)
  Link WS02006111WS02006112 (24)
  Link YS02006558YS02006561 (13)
  Link WS02006110WS02006113 (4)
  Link YS02001754YS02001757 (3)
  
  
  *************************
  Routing Time Step Summary
  *************************
  Minimum Time Step           :     0.50 sec
  Average Time Step           :     0.87 sec
  Maximum Time Step           :     5.00 sec
  Percent in Steady State     :    -0.00
  Average Iterations per Step :     2.04
  Percent Not Converging      :     0.34
  
  
  ***************************
  Subcatchment Runoff Summary
  ***************************
  
  ------------------------------------------------------------------------------------------------------------------------------
                            Total      Total      Total      Total     Imperv       Perv      Total       Total     Peak  Runoff
                           Precip      Runon       Evap      Infil     Runoff     Runoff     Runoff      Runoff   Runoff   Coeff
  Subcatchment                 mm         mm         mm         mm         mm         mm         mm    10^6 ltr      LPS
  ------------------------------------------------------------------------------------------------------------------------------
  sub0                       5.89       0.00       0.00       0.41       4.21       0.00       4.21        0.00     1.47   0.715
  sub1                       5.89       0.00       0.00       0.65       3.99       0.00       3.99        0.03     7.65   0.677
  sub2                       5.89       0.00       0.00       2.18       2.81       0.00       2.81        0.03     6.74   0.476
  sub3                       5.89       0.00       0.00       2.18       2.77       0.00       2.77        0.06    13.82   0.470
  sub4                       5.89       0.00       0.00       0.65       3.85       0.00       3.85        0.08    15.45   0.654
  sub5                       5.89       0.00       0.00       0.41       4.17       0.00       4.17        0.05    13.60   0.707
  sub7                       5.89       0.00       0.00       0.53       4.11       0.00       4.11        0.01     4.82   0.697
  sub8                       5.89       0.00       0.00       0.53       4.10       0.00       4.10        0.03     8.49   0.696
  sub9                       5.89       0.00       0.00       0.53       4.10       0.00       4.10        0.02     6.29   0.695
  sub10                      5.89       0.00       0.00       0.47       4.13       0.00       4.13        0.05    13.58   0.701
  sub11                      5.89       0.00       0.00       0.47       4.15       0.00       4.15        0.05    15.97   0.704
  sub12                      5.89       0.00       0.00       0.77       3.94       0.00       3.94        0.03    13.59   0.668
  sub14                      5.89       0.00       0.00       0.53       4.09       0.00       4.09        0.04    12.29   0.695
  sub15                      5.89       0.00       0.00       1.77       3.15       0.00       3.15        0.05    16.66   0.534
  sub16                      5.89       0.00       0.00       1.94       3.03       0.00       3.03        0.03    11.93   0.514
  sub17                      5.89       0.00       0.00       1.89       3.07       0.00       3.07        0.03     9.64   0.522
  sub22                      5.89       0.00       0.00       2.53       2.57       0.00       2.57        0.16    54.70   0.436
  sub23                      5.89       0.00       0.00       2.18       2.84       0.00       2.84        0.14    46.61   0.482
  sub60                      5.89       0.00       0.00       0.71       2.76       0.00       2.76        0.84    76.77   0.469
  sub61                      5.89       0.00       0.00       1.00       2.95       0.00       2.95        0.91    96.90   0.501
  sub62                      5.89       0.00       0.00       0.47       3.17       0.00       3.17        0.97    98.85   0.538
  sub63                      5.89       0.00       0.00       1.71       2.63       0.00       2.63        0.80    90.67   0.447
  sub64                      5.89       0.00       0.00       0.88       2.64       0.00       2.64        0.80    72.89   0.448
  sub65                      5.89       0.00       0.00       0.77       2.67       0.00       2.67        0.82    73.94   0.453
  sub66                      5.89       0.00       0.00       1.71       2.30       0.00       2.30        0.71    66.93   0.391
  sub67                      5.89       0.00       0.00       0.47       3.49       0.00       3.49        1.08   127.64   0.592
  sub68                      5.89       0.00       0.00       0.82       3.14       0.00       3.14        0.97   107.31   0.534
  sub69                      5.89       0.00       0.00       0.88       3.40       0.00       3.40        0.79   107.30   0.576
  sub70                      5.89       3.47       0.00       3.18       4.16       0.00       4.16        0.95    85.44   0.445
  sub71                      5.89       0.00       0.00       0.47       3.03       0.00       3.03        0.72    68.84   0.514
  sub72                      5.89       0.00       0.00       0.41       2.13       0.00       2.13        0.43    32.41   0.362
  sub73                      5.89       4.05       0.00       3.38       4.23       0.00       4.23        0.99    73.37   0.426
  sub74                      5.89       0.00       0.00       4.42       1.02       0.00       1.02        0.41    60.02   0.174
  
  
  ******************
  Node Depth Summary
  ******************
  
  ---------------------------------------------------------------------------------
                                 Average  Maximum  Maximum  Time of Max    Reported
                                   Depth    Depth      HGL   Occurrence   Max Depth
  Node                 Type       Meters   Meters   Meters  days hr:min      Meters
  ---------------------------------------------------------------------------------
  WS02001211           JUNCTION     0.63     0.77     5.61     0  04:41        0.77
  WS02001212           JUNCTION     0.37     0.48     5.55     0  03:11        0.48
  WS02001213           JUNCTION     0.60     0.73     5.49     0  03:12        0.73
  WS02003069           JUNCTION     0.44     0.55     5.13     0  03:13        0.55
  WS02003072           JUNCTION     0.50     0.61     4.98     0  03:14        0.61
  WS02003073           JUNCTION     0.30     0.37     4.44     0  03:14        0.37
  WS02003060           JUNCTION     0.39     0.49     5.42     0  03:12        0.49
  WS02003066           JUNCTION     0.24     0.30     5.85     0  02:36        0.30
  WS02003059           JUNCTION     0.67     0.78     5.47     0  03:12        0.78
  WS02003067           JUNCTION     0.59     0.70     6.02     0  02:36        0.70
  WS02004401           JUNCTION     0.69     0.85     6.85     0  02:33        0.85
  WS02004402           JUNCTION     0.72     0.88     6.84     0  02:33        0.88
  WS02004403           JUNCTION     0.74     0.89     6.82     0  02:32        0.89
  WS02004404           JUNCTION     0.82     0.96     6.81     0  02:33        0.96
  WS02004406           JUNCTION     0.82     0.96     6.79     0  02:34        0.96
  WS02004409           JUNCTION     0.51     0.67     6.44     0  02:34        0.67
  WS02004410           JUNCTION     0.53     0.68     6.40     0  02:35        0.68
  WS02004411           JUNCTION     0.54     0.69     6.37     0  02:35        0.69
  WS02004412           JUNCTION     0.56     0.70     6.34     0  02:35        0.70
  WS02004413           JUNCTION     0.71     0.86     6.33     0  02:35        0.86
  WS02004405           JUNCTION     0.82     0.96     6.81     0  02:34        0.96
  WS02006109           JUNCTION     0.78     0.99     7.60     0  02:26        0.99
  WS02006110           JUNCTION     0.77     0.93     7.52     0  02:26        0.93
  WS02006111           JUNCTION     0.23     0.29     7.00     0  02:27        0.29
  WS02006112           JUNCTION     0.87     1.06     6.94     0  02:33        1.05
  WS02006113           JUNCTION     0.36     0.46     7.35     0  02:27        0.46
  WS02006115           JUNCTION     0.59     0.75     6.89     0  02:33        0.75
  WS02006116           JUNCTION     0.67     0.83     6.87     0  02:33        0.83
  WS02006230           JUNCTION     0.76     1.04     7.79     0  02:26        1.04
  WS02006231           JUNCTION     0.51     0.71     7.84     0  02:26        0.71
  WS02006232           JUNCTION     0.65     0.85     7.88     0  02:26        0.84
  WS02006234           JUNCTION     0.58     0.78     7.94     0  02:26        0.78
  WS02006235           JUNCTION     0.62     0.82     7.98     0  02:26        0.81
  WS02006238           JUNCTION     0.64     0.85     7.99     0  02:26        0.84
  WS02006240           JUNCTION     0.55     0.77     8.06     0  02:25        0.77
  WS02006242           JUNCTION     0.61     0.84     8.11     0  02:26        0.82
  WS02006243           JUNCTION     0.50     0.72     8.14     0  02:26        0.72
  WS02006245           JUNCTION     0.48     0.69     8.17     0  02:25        0.68
  WS02006247           JUNCTION     0.49     0.69     8.19     0  02:25        0.69
  WS02006248           JUNCTION     0.44     0.63     8.21     0  02:26        0.63
  WS02006249           JUNCTION     0.47     0.63     8.23     0  02:28        0.63
  WS02006239           JUNCTION     0.61     0.82     8.02     0  02:26        0.81
  WS02006251           JUNCTION     0.46     0.66     8.33     0  02:27        0.66
  WS02006252           JUNCTION     0.42     0.59     8.83     0  02:21        0.58
  WS02006253           JUNCTION     0.49     0.69     8.34     0  02:27        0.69
  WS02006256           JUNCTION     1.03     2.35     9.28     0  00:00        1.21
  WS02004138           JUNCTION     0.14     0.19     7.44     0  01:20        0.19
  WS02004407           JUNCTION     0.23     0.30     6.61     0  02:33        0.30
  WS02006228           JUNCTION     0.78     1.03     7.68     0  02:25        1.03
  WS02006229           JUNCTION     0.76     1.03     7.72     0  02:26        1.03
  WS02006280           JUNCTION     0.06     0.15     8.42     0  02:17        0.15
  WS02006284           JUNCTION     0.35     0.48     8.88     0  02:17        0.48
  WS02006287           JUNCTION     0.08     0.21     9.17     0  02:17        0.21
  WSF200               JUNCTION     0.23     0.31     5.54     0  02:36        0.31
  HS02004901           JUNCTION     0.11     0.23    10.06     0  02:15        0.23
  HS02004881           JUNCTION     0.01     0.02     9.05     0  02:17        0.02
  HS02004876           JUNCTION     0.04     0.10     9.13     0  02:15        0.10
  HS02004870           JUNCTION     0.01     0.04     9.33     0  02:17        0.04
  HS02004862           JUNCTION     0.01     0.05     9.43     0  02:18        0.05
  HS02004856           JUNCTION     0.07     0.10     9.53     0  02:17        0.10
  HS02004852           JUNCTION     0.01     0.03     9.54     0  02:19        0.03
  HS02004848           JUNCTION     0.01     0.03     9.63     0  02:17        0.03
  HS02004842           JUNCTION     0.33     0.36     9.63     0  02:16        0.36
  HS02004837           JUNCTION     0.03     0.05     9.63     0  02:17        0.05
  HS02004830           JUNCTION     0.04     0.06     9.53     0  02:17        0.06
  HS02004824           JUNCTION     0.02     0.04     9.44     0  02:20        0.04
  HS02004817           JUNCTION     0.43     0.53     9.37     0  02:18        0.53
  HS02004807           JUNCTION     0.11     0.20     9.37     0  02:18        0.20
  HS02004802           JUNCTION     0.15     0.24     9.37     0  02:18        0.24
  HS02004799           JUNCTION     0.10     0.26     9.47     0  02:16        0.26
  HS02004792           JUNCTION     0.02     0.10     9.62     0  02:15        0.10
  HS02004788           JUNCTION     0.02     0.07     9.97     0  02:16        0.07
  HS02004785           JUNCTION     0.04     0.14    10.04     0  02:15        0.14
  HS02004777           JUNCTION     0.13     0.25    10.05     0  02:15        0.25
  HS02004770           JUNCTION     0.10     0.22    10.06     0  02:15        0.22
  HS02004480           JUNCTION     0.07     0.20     9.44     0  02:16        0.20
  HS02004479           JUNCTION     0.10     0.24     9.44     0  02:16        0.24
  HS02004478           JUNCTION     0.05     0.13     9.36     0  02:17        0.13
  YS02001745           JUNCTION     0.08     0.12     7.64     0  02:58        0.12
  YS02001748           JUNCTION     0.21     0.40     7.47     0  04:13        0.39
  YS02001751           JUNCTION     0.39     0.59     7.47     0  03:00        0.59
  YS02001754           JUNCTION     0.64     0.87     7.48     0  04:13        0.87
  YS02001762           JUNCTION     0.84     1.08     7.48     0  03:02        1.07
  YS02001765           JUNCTION     0.79     1.03     7.48     0  03:01        1.02
  YS02001767           JUNCTION     0.76     1.00     7.49     0  03:04        0.99
  YS02001770           JUNCTION     0.75     0.97     7.46     0  03:00        0.97
  YS02001774           JUNCTION     0.82     1.05     7.47     0  03:01        1.04
  YS02001779           JUNCTION     0.57     0.80     7.49     0  03:04        0.80
  YS02001882           JUNCTION     0.29     0.46     7.17     0  02:50        0.46
  YS02001884           JUNCTION     0.39     0.56     7.17     0  02:50        0.56
  YS02001759           JUNCTION     0.87     1.11     7.47     0  03:02        1.10
  YS02001887           JUNCTION     0.46     0.64     7.17     0  02:50        0.64
  YS02001890           JUNCTION     0.49     0.67     7.17     0  02:49        0.67
  YS02001898           JUNCTION     0.26     0.42     7.16     0  02:52        0.42
  YS02001901           JUNCTION     0.38     0.55     7.16     0  02:51        0.55
  YS02001904           JUNCTION     0.36     0.52     7.15     0  02:51        0.52
  YS02001907           JUNCTION     0.69     0.87     7.16     0  02:51        0.87
  YS02001910           JUNCTION     0.48     0.65     7.16     0  02:51        0.65
  YS02001915           JUNCTION     0.28     0.44     7.15     0  02:50        0.44
  YS02001918           JUNCTION     0.08     0.10     7.16     0  03:03        0.10
  YS02001619           JUNCTION     0.35     0.55     7.48     0  02:58        0.55
  YS02001629           JUNCTION     0.70     0.92     7.47     0  03:00        0.92
  YS02001641           JUNCTION     0.81     1.03     7.47     0  03:01        1.03
  YS02001644           JUNCTION     0.81     1.04     7.47     0  03:01        1.04
  YS02001652           JUNCTION     0.66     0.87     7.47     0  04:08        0.87
  YS02001655           JUNCTION     0.42     0.63     7.48     0  04:08        0.63
  YS02001920           JUNCTION     0.17     0.21     7.21     0  03:02        0.21
  YS02001923           JUNCTION     0.06     0.08     7.34     0  03:02        0.08
  YS02001926           JUNCTION     0.14     0.18     7.62     0  03:01        0.18
  YS02001929           JUNCTION     0.07     0.09     7.78     0  03:01        0.09
  YS02001658           JUNCTION     0.16     0.32     7.46     0  04:18        0.32
  YS02001661           JUNCTION     0.14     0.20     7.60     0  02:43        0.20
  YS02001664           JUNCTION     0.07     0.12     8.04     0  02:43        0.12
  YS02001622           JUNCTION     0.37     0.57     7.47     0  03:01        0.57
  YS02001633           JUNCTION     0.79     1.03     7.48     0  02:59        1.02
  YS02001649           JUNCTION     0.85     1.07     7.46     0  02:58        1.07
  YS02001757           JUNCTION     0.97     1.20     7.46     0  03:01        1.20
  YS02001895           JUNCTION     0.26     0.42     7.17     0  02:49        0.42
  YS02001625           JUNCTION     0.66     0.88     7.48     0  02:59        0.87
  YS02163301           JUNCTION     0.73     0.96     7.48     0  02:58        0.96
  YS02163601           JUNCTION     0.85     1.08     7.48     0  03:58        1.07
  YS02164001           JUNCTION     0.79     1.01     7.47     0  02:54        1.01
  YS02001647           JUNCTION     0.64     0.86     7.47     0  03:01        0.86
  YSB1154              JUNCTION     0.24     0.39     9.45     0  02:16        0.39
  YSB6556              JUNCTION     0.13     0.28     9.44     0  02:16        0.28
  YSB1174              JUNCTION     0.19     0.34     9.44     0  02:16        0.34
  YSB1171              JUNCTION     0.39     0.54     9.44     0  02:16        0.54
  YS02006553           JUNCTION     0.69     0.87     7.15     0  02:51        0.87
  YS02006561           JUNCTION     0.14     0.23     6.89     0  02:51        0.23
  YS02006556           JUNCTION     0.67     0.84     7.15     0  02:51        0.84
  YS02006558           JUNCTION     0.71     0.88     7.15     0  02:51        0.88
  YS02001783           JUNCTION     0.25     0.41     6.55     0  02:51        0.41
  YS02001784           JUNCTION     0.28     0.43     6.50     0  02:52        0.43
  YS02001786           JUNCTION     0.24     0.37     6.40     0  02:51        0.37
  YS02001788           JUNCTION     0.17     0.28     6.25     0  02:51        0.28
  YS02001790           JUNCTION     0.21     0.34     5.98     0  02:53        0.34
  YS02001791           JUNCTION     0.14     0.22     5.69     0  02:42        0.22
  YS02001793           JUNCTION     0.09     0.14     4.97     0  02:53        0.14
  WS02004139           JUNCTION     0.58     0.71     5.62     0  04:40        0.71
  WSC                  OUTFALL      0.30     0.37     1.04     0  03:15        0.37
  3                    OUTFALL      0.08     0.23     6.23     0  00:00        0.21
  4                    OUTFALL      0.04     0.13     7.13     0  02:28        0.13
  5                    OUTFALL      0.00     0.00     5.00     0  00:00        0.00
  JK-storage           STORAGE      0.18     3.00     3.80     0  00:00        2.39
  CC-storage           STORAGE      0.18     0.36     7.36     0  04:15        0.36
  XR-storage           STORAGE      6.90     7.72     5.72     0  03:37        7.72
  
  
  *******************
  Node Inflow Summary
  *******************
  
  -------------------------------------------------------------------------------------------------
                                  Maximum  Maximum                  Lateral       Total        Flow
                                  Lateral    Total  Time of Max      Inflow      Inflow     Balance
                                   Inflow   Inflow   Occurrence      Volume      Volume       Error
  Node                 Type           LPS      LPS  days hr:min    10^6 ltr    10^6 ltr     Percent
  -------------------------------------------------------------------------------------------------
  WS02001211           JUNCTION      7.35   381.57     0  04:40       0.207        6.39       0.614
  WS02001212           JUNCTION      0.00   377.64     0  04:41           0        6.35       0.319
  WS02001213           JUNCTION      0.00   376.33     0  04:41           0        6.33       0.383
  WS02003069           JUNCTION      0.32   851.01     0  03:13     0.00902        14.3       0.220
  WS02003072           JUNCTION      0.00   850.39     0  03:13           0        14.3       0.268
  WS02003073           JUNCTION      1.82   851.95     0  03:14      0.0514        14.3       0.312
  WS02003060           JUNCTION     16.53   850.89     0  03:12       0.466        14.3       0.206
  WS02003066           JUNCTION      0.00   535.78     0  02:36           0         7.6       0.057
  WS02003059           JUNCTION      0.00   375.67     0  04:42           0        6.31       0.659
  WS02003067           JUNCTION      0.00   535.68     0  02:36           0        7.61       0.121
  WS02004401           JUNCTION      0.00   541.14     0  02:30           0        7.83       0.243
  WS02004402           JUNCTION      0.00   540.23     0  02:31           0        7.81       0.233
  WS02004403           JUNCTION      0.00   539.77     0  02:33           0        7.79       0.215
  WS02004404           JUNCTION      0.16   539.89     0  02:33     0.00457        7.78       0.164
  WS02004406           JUNCTION      0.00   539.84     0  02:31           0        7.75       0.402
  WS02004409           JUNCTION      0.00   539.53     0  02:33           0        7.71       0.195
  WS02004410           JUNCTION      0.00   537.85     0  02:34           0        7.69       0.226
  WS02004411           JUNCTION      0.00   536.85     0  02:35           0        7.68       0.235
  WS02004412           JUNCTION      0.00   536.30     0  02:35           0        7.66       0.258
  WS02004413           JUNCTION      0.00   535.90     0  02:35           0        7.64       0.385
  WS02004405           JUNCTION      0.04   539.82     0  02:33     0.00107        7.77       0.249
  WS02006109           JUNCTION      1.23   550.84     0  02:26      0.0347         7.9       0.232
  WS02006110           JUNCTION      0.00   550.91     0  02:26           0        7.88       0.195
  WS02006111           JUNCTION      0.00   573.24     0  02:26           0        7.86       0.031
  WS02006112           JUNCTION      9.64   562.84     0  02:27      0.0263        7.89       0.315
  WS02006113           JUNCTION      0.00   552.18     0  02:26           0        7.87       0.088
  WS02006115           JUNCTION      0.00   557.15     0  02:27           0        7.86       0.215
  WS02006116           JUNCTION      0.00   544.09     0  02:29           0        7.84       0.213
  WS02006230           JUNCTION     10.28   396.20     0  04:45        0.29        6.99       0.165
  WS02006231           JUNCTION      0.00   386.13     0  04:45           0        6.71       0.059
  WS02006232           JUNCTION      0.00   386.15     0  04:45           0        6.72       0.167
  WS02006234           JUNCTION      0.00   386.34     0  04:44           0        6.72       0.037
  WS02006235           JUNCTION      0.00   386.38     0  04:44           0        6.76       0.113
  WS02006238           JUNCTION      0.00   338.84     0  03:10           0        5.07       0.058
  WS02006240           JUNCTION      0.00   335.63     0  03:30           0        5.05       0.070
  WS02006242           JUNCTION      0.00   340.45     0  02:23           0        5.04       0.086
  WS02006243           JUNCTION      0.00   355.17     0  02:23           0        5.03      -0.157
  WS02006245           JUNCTION      0.00   365.50     0  02:22           0        5.03       0.078
  WS02006247           JUNCTION      0.00   373.18     0  02:22           0        5.03       0.010
  WS02006248           JUNCTION      0.00   378.71     0  02:22           0        5.03      -0.017
  WS02006249           JUNCTION      0.00   440.15     0  02:27           0         5.7       0.034
  WS02006239           JUNCTION      0.00   336.99     0  03:30           0        5.05       0.079
  WS02006251           JUNCTION      0.08   442.16     0  02:22     0.00217        5.73       0.005
  WS02006252           JUNCTION      0.00   400.00     0  02:21           0        5.55       0.002
  WS02006253           JUNCTION      1.47    47.26     0  02:19     0.00341       0.176      -0.158
  WS02006256           JUNCTION      0.00   600.00     0  00:00           0        4.47       0.039
  WS02004138           JUNCTION      0.00   379.96     0  04:40           0        6.21       0.059
  WS02004407           JUNCTION      0.00   539.57     0  02:33           0        7.72       0.082
  WS02006228           JUNCTION      0.00   549.58     0  02:26           0        7.88       0.150
  WS02006229           JUNCTION      0.00   552.19     0  02:26           0        7.89       0.124
  WS02006280           JUNCTION      0.00   217.50     0  02:17           0       0.907       0.008
  WS02006284           JUNCTION      0.10   217.49     0  02:17      0.0027       0.908       0.117
  WS02006287           JUNCTION      0.00   217.35     0  02:17           0       0.906       0.080
  WSF200               JUNCTION      0.00   535.83     0  02:36           0         7.6       0.054
  HS02004901           JUNCTION     11.93    11.93     0  02:09      0.0317      0.0318       5.839
  HS02004881           JUNCTION      4.82    41.34     0  02:16      0.0138       0.145       0.229
  HS02004876           JUNCTION      7.65    36.85     0  02:17      0.0265       0.132       0.400
  HS02004870           JUNCTION      8.49    29.37     0  02:17      0.0262       0.106       0.101
  HS02004862           JUNCTION      6.94    21.46     0  02:17      0.0318      0.0798       0.212
  HS02004856           JUNCTION      6.29    14.58     0  02:17      0.0197      0.0494       3.004
  HS02004852           JUNCTION      0.00     8.69     0  02:17           0      0.0298       0.170
  HS02004848           JUNCTION     13.82    13.82     0  02:19      0.0624      0.0624       0.070
  HS02004842           JUNCTION      0.00     5.61     0  02:29           0      0.0456      39.893
  HS02004837           JUNCTION     19.93    24.68     0  02:16       0.225       0.257       0.317
  HS02004830           JUNCTION      0.15    24.82     0  02:17     0.00423       0.248       0.500
  HS02004824           JUNCTION     15.50    40.13     0  02:20      0.0817       0.328       0.164
  HS02004817           JUNCTION      0.60    40.73     0  02:20      0.0169       0.344       5.084
  HS02004807           JUNCTION     15.97    55.26     0  02:18      0.0481       0.376       1.137
  HS02004802           JUNCTION      0.00    55.58     0  02:20           0       0.372       1.105
  HS02004799           JUNCTION     12.29   138.26     0  02:15      0.0389       0.471       0.485
  HS02004792           JUNCTION     54.98   126.25     0  02:14        0.17       0.433       0.095
  HS02004788           JUNCTION     18.33    73.51     0  02:15       0.101       0.264       0.147
  HS02004785           JUNCTION      0.15    55.59     0  02:15     0.00423       0.164       0.294
  HS02004777           JUNCTION      0.03    55.94     0  02:13    0.000846       0.165       3.244
  HS02004770           JUNCTION     46.61    57.20     0  02:11       0.135       0.166       1.906
  HS02004480           JUNCTION      0.00   162.99     0  02:15           0        0.55       0.133
  HS02004479           JUNCTION      0.00    25.27     0  02:18           0       0.091       0.808
  HS02004478           JUNCTION      0.00   217.35     0  02:17           0       0.906       0.068
  YS02001745           JUNCTION     76.78    76.78     0  02:58       0.836       0.836       0.095
  YS02001748           JUNCTION      0.04   167.95     0  04:00     0.00127           1      -0.028
  YS02001751           JUNCTION      0.01   210.73     0  04:01     0.00031        1.04       0.225
  YS02001754           JUNCTION      0.26   154.65     0  06:51     0.00733        1.12       1.057
  YS02001762           JUNCTION      0.00   120.84     0  02:40           0       0.969       1.519
  YS02001765           JUNCTION      0.00   127.43     0  02:36           0       0.963       1.648
  YS02001767           JUNCTION      0.54   134.52     0  03:03      0.0151       0.968       2.125
  YS02001770           JUNCTION     99.01   135.67     0  03:04       0.977        1.09       1.621
  YS02001774           JUNCTION      0.00    46.62     0  03:49           0       0.229       7.345
  YS02001779           JUNCTION      0.01    37.39     0  03:02    0.000141      0.0971       6.185
  YS02001882           JUNCTION      0.00     4.33     0  02:09           0     0.00533      46.002
  YS02001884           JUNCTION      0.00    12.00     0  02:06           0      0.0213      29.681
  YS02001759           JUNCTION     96.94   214.57     0  02:55       0.912        1.85       0.898
  YS02001887           JUNCTION    128.09   128.09     0  02:40        1.09         1.1       0.657
  YS02001890           JUNCTION      0.00   127.74     0  02:42           0        1.07       0.736
  YS02001898           JUNCTION      0.00   127.39     0  02:42           0        1.06       0.207
  YS02001901           JUNCTION      0.00   127.26     0  02:42           0        1.06       0.522
  YS02001904           JUNCTION      0.00   126.46     0  02:42           0        1.06       0.486
  YS02001907           JUNCTION      0.00   228.62     0  02:53           0        2.27       0.980
  YS02001910           JUNCTION      0.00   104.29     0  03:01           0        1.22       0.837
  YS02001915           JUNCTION     68.86   103.63     0  03:00       0.715        1.23       0.373
  YS02001918           JUNCTION      0.00    35.27     0  03:02           0       0.513       0.221
  YS02001619           JUNCTION     66.93    66.93     0  02:55       0.706       0.707       0.125
  YS02001629           JUNCTION      0.00   119.77     0  04:13           0       0.715       0.853
  YS02001641           JUNCTION      0.00   152.02     0  03:38           0        1.48       0.907
  YS02001644           JUNCTION     72.93   224.28     0  02:57       0.803        2.26       0.714
  YS02001652           JUNCTION      0.00   128.97     0  03:55           0       0.957       1.039
  YS02001655           JUNCTION      0.15   198.46     0  03:56     0.00434       0.951       0.452
  YS02001920           JUNCTION      2.87    35.29     0  03:02      0.0809       0.515       0.398
  YS02001923           JUNCTION      0.04    32.43     0  03:01     0.00106       0.435       0.070
  YS02001926           JUNCTION      0.05    32.45     0  03:01     0.00147       0.436       0.499
  YS02001929           JUNCTION     32.41    32.41     0  03:01       0.434       0.434       0.068
  YS02001658           JUNCTION      0.00   160.48     0  04:07           0       0.943       0.026
  YS02001661           JUNCTION      0.00    90.67     0  02:43           0       0.796       0.092
  YS02001664           JUNCTION     90.67    90.67     0  02:43       0.796       0.796       0.021
  YS02001622           JUNCTION      0.00    88.29     0  04:00           0        0.71       0.468
  YS02001633           JUNCTION     74.14   156.91     0  02:40       0.827         1.5       1.293
  YS02001649           JUNCTION      0.00   319.25     0  02:53           0        3.16       0.780
  YS02001757           JUNCTION      0.00   567.73     0  03:00           0        5.83       1.224
  YS02001895           JUNCTION      0.00   127.31     0  02:43           0        1.07       0.352
  YS02001625           JUNCTION      0.00   140.69     0  04:12           0       0.732       2.307
  YS02163301           JUNCTION      0.00    94.29     0  03:50           0       0.692       1.897
  YS02163601           JUNCTION      0.11   154.95     0  02:53      0.0031        1.48       1.401
  YS02164001           JUNCTION      0.00   154.47     0  02:56           0        1.47       0.839
  YS02001647           JUNCTION      0.00   221.94     0  02:57           0        2.23       0.604
  YSB1154              JUNCTION     13.60    13.60     0  02:14      0.0472      0.0485       3.067
  YSB6556              JUNCTION      0.00    13.56     0  02:17           0      0.0495       2.583
  YSB1174              JUNCTION     13.59    13.59     0  02:09      0.0344      0.0354       3.761
  YSB1171              JUNCTION      0.00    25.32     0  02:15           0      0.0904       7.516
  YS02006553           JUNCTION      0.00   228.69     0  02:54           0        2.26       0.635
  YS02006561           JUNCTION      0.00   338.77     0  02:51           0         3.2       0.021
  YS02006556           JUNCTION      0.00   228.76     0  02:54           0        2.27       0.459
  YS02006558           JUNCTION    108.19   335.79     0  02:51       0.991        3.23       0.140
  YS02001783           JUNCTION      0.00   335.76     0  02:51           0         3.2       0.048
  YS02001784           JUNCTION      1.06   336.83     0  02:52      0.0299        3.23       0.079
  YS02001786           JUNCTION      0.06   336.86     0  02:52     0.00159        3.23       0.077
  YS02001788           JUNCTION      0.07   336.92     0  02:52       0.002        3.23       0.044
  YS02001790           JUNCTION      0.15   337.08     0  02:52     0.00437        3.23       0.056
  YS02001791           JUNCTION      0.00   337.07     0  02:53           0        3.23       0.027
  YS02001793           JUNCTION      0.00   337.07     0  02:53           0        3.23       0.009
  WS02004139           JUNCTION      0.32   379.66     0  04:40     0.00905        6.22       0.597
  WSC                  OUTFALL       0.00   851.41     0  03:15           0        14.2       0.000
  3                    OUTFALL       0.00   597.65     0  00:00           0        2.76       0.000
  4                    OUTFALL       0.00   160.97     0  02:28           0       0.664       0.000
  5                    OUTFALL       0.00     0.00     0  00:00           0           0       0.000 ltr
  JK-storage           STORAGE       0.00   337.07     0  02:53           0        3.38     -24.360
  CC-storage           STORAGE       0.00   568.34     0  02:59           0        5.52      -1.729
  XR-storage           STORAGE     324.79   324.79     0  02:50        7.04        7.64      -0.002
  
  
  **********************
  Node Surcharge Summary
  **********************
  
  Surcharging occurs when water rises above the top of the highest conduit.
  ---------------------------------------------------------------------
                                               Max. Height   Min. Depth
                                   Hours       Above Crown    Below Rim
  Node                 Type      Surcharged         Meters       Meters
  ---------------------------------------------------------------------
  WS02006109           JUNCTION        2.31          0.166        1.654
  WS02006110           JUNCTION        0.17          0.023        1.827
  WS02006112           JUNCTION        0.57          0.055        1.625
  WS02006231           JUNCTION        0.01          0.003        1.527
  WS02006232           JUNCTION        2.87          0.146        1.334
  WS02006234           JUNCTION        0.51          0.065        1.175
  WS02006235           JUNCTION        1.49          0.108        1.182
  WS02006238           JUNCTION        2.11          0.126        1.304
  WS02006240           JUNCTION        0.50          0.056        1.334
  WS02006242           JUNCTION        1.60          0.107        0.713
  WS02006243           JUNCTION        0.02          0.012        0.758
  WS02006239           JUNCTION        0.63          0.075        1.215
  WS02006252           JUNCTION        3.35          0.185        0.915
  WS02006256           JUNCTION        0.01          1.050        0.000
  WS02006228           JUNCTION        2.12          0.199        2.001
  YS02001762           JUNCTION        1.16          0.077        1.073
  YS02001765           JUNCTION        0.18          0.029        1.071
  YS02001774           JUNCTION        0.59          0.046        1.004
  YS02001759           JUNCTION        2.24          0.107        1.103
  YS02001641           JUNCTION        0.51          0.035        1.065
  YS02001644           JUNCTION        0.58          0.040        0.880
  YS02001633           JUNCTION        0.01          0.007        1.053
  YS02001649           JUNCTION        1.68          0.072        0.978
  YS02001757           JUNCTION        3.23          0.200        1.010
  YS02163601           JUNCTION        1.44          0.078        1.002
  YS02164001           JUNCTION        0.22          0.013        1.087
  
  
  *********************
  Node Flooding Summary
  *********************
  
  Flooding refers to all water that overflows a node, whether it ponds or not.
  --------------------------------------------------------------------------
                                                             Total   Maximum
                                 Maximum   Time of Max       Flood    Ponded
                        Hours       Rate    Occurrence      Volume     Depth
  Node                 Flooded       LPS   days hr:min    10^6 ltr    Meters
  --------------------------------------------------------------------------
  WS02006256              0.01    406.11      0  00:00       0.001     0.000
  XR-storage              1.77    285.99      0  03:50       0.613     0.000
  
  
  **********************
  Storage Volume Summary
  **********************
  
  --------------------------------------------------------------------------------------------------
                         Average     Avg  Evap Exfil       Maximum     Max    Time of Max    Maximum
                          Volume    Pcnt  Pcnt  Pcnt        Volume    Pcnt     Occurrence    Outflow
  Storage Unit           1000 m3    Full  Loss  Loss       1000 m3    Full    days hr:min        LPS
  --------------------------------------------------------------------------------------------------
  JK-storage               0.009       3     0     0         0.151      52       0  00:00     600.00
  CC-storage               0.502       3     0     0         1.012       6       0  04:15     400.00
  XR-storage               0.828      89     0     0         0.926     100       0  03:37     379.96
  
  
  ***********************
  Outfall Loading Summary
  ***********************
  
  -----------------------------------------------------------
                         Flow       Avg       Max       Total
                         Freq      Flow      Flow      Volume
  Outfall Node           Pcnt       LPS       LPS    10^6 ltr
  -----------------------------------------------------------
  WSC                   99.99    584.30    851.41      14.239
  3                     78.87    183.36    597.65       2.757
  4                     54.19     55.92    160.97       0.664
  5                      0.00      0.00      0.00       0.000
  -----------------------------------------------------------
  System                58.26    823.59   1321.92      17.660
  
  
  ********************
  Link Flow Summary
  ********************
  
  -----------------------------------------------------------------------------
                                 Maximum  Time of Max   Maximum    Max/    Max/
                                  |Flow|   Occurrence   |Veloc|    Full    Full
  Link                 Type          LPS  days hr:min     m/sec    Flow   Depth
  -----------------------------------------------------------------------------
  WS02003066WSF200     CONDUIT    535.83     0  02:36      2.74    0.09    0.23
  WS02006287WS02006284 CONDUIT    217.39     0  02:17      1.65    0.10    0.22
  WS02006284WS02006280 CONDUIT    217.50     0  02:17      1.89    0.09    0.20
  WS02006280WS02006229 CONDUIT    217.50     0  02:17      3.04    0.05    0.15
  WS02006229WS02006228 CONDUIT    549.58     0  02:26      1.09    1.82    1.00
  WS02006256WS02006235 CONDUIT    177.52     0  00:01      2.73    1.88    1.00
  WS02006253WS02006251 CONDUIT     42.72     0  02:17      0.50    0.13    0.96
  WS02006252WS02006251 CONDUIT    400.32     0  07:20      3.19    1.47    1.00
  WS02006251WS02006249 CONDUIT    440.15     0  02:27      1.25    1.27    0.92
  WS02006249WS02006248 CONDUIT    378.71     0  02:22      1.23    2.07    0.88
  WS02006248WS02006247 CONDUIT    373.18     0  02:22      1.20    0.81    0.93
  WS02006247WS02006245 CONDUIT    365.50     0  02:22      1.17    2.90    0.98
  WS02006245WS02006243 CONDUIT    355.17     0  02:23      1.21    1.05    0.99
  WS02006243WS02006242 CONDUIT    340.45     0  02:23      1.02    0.73    1.00
  WS02006242WS02006240 CONDUIT    335.63     0  03:30      0.92    1.33    1.00
  WS02006240WS02006239 CONDUIT    336.99     0  03:30      0.96    1.06    1.00
  WS02006239WS02006238 CONDUIT    338.84     0  03:10      0.90    1.08    1.00
  WS02006238WS02006235 CONDUIT    339.21     0  03:10      1.32    0.76    1.00
  WS02006235WS02006234 CONDUIT    386.34     0  04:44      1.02    4.08    1.00
  WS02006234WS02006232 CONDUIT    386.15     0  04:45      1.17    0.78    1.00
  WS02006232WS02006231 CONDUIT    386.13     0  04:45      1.05    0.81    1.00
  WS02006231WS02006230 CONDUIT    385.92     0  04:45      1.35    5.85    0.97
  WS02006230WS02006229 CONDUIT    396.05     0  04:46      1.03    8.81    1.00
  WS02006228WS02006109 CONDUIT    549.61     0  02:26      1.09    2.40    1.00
  WS02006116WS02004401 CONDUIT    541.14     0  02:30      0.78    0.75    0.84
  WS02006115WS02006116 CONDUIT    544.09     0  02:29      0.90    0.70    0.76
  WS02006113WS02006111 CONDUIT    573.24     0  02:26      2.48    0.69    0.47
  WS02006112WS02006115 CONDUIT    557.15     0  02:27      0.78    0.33    0.87
  WS02006111WS02006112 CONDUIT    556.60     0  02:27      1.54    0.26    0.68
  WS02006110WS02006113 CONDUIT    552.18     0  02:26      1.30    0.50    0.79
  WS02006109WS02006110 CONDUIT    550.91     0  02:26      1.10    1.06    1.00
  WS02004411WS02004412 CONDUIT    536.30     0  02:35      0.92    0.76    0.69
  WS02004401WS02004402 CONDUIT    540.23     0  02:31      0.75    0.65    0.87
  WS02004413WS02003067 CONDUIT    535.68     0  02:36      1.11    0.23    0.59
  WS02004412WS02004413 CONDUIT    535.90     0  02:35      0.82    0.36    0.78
  WS02004410WS02004411 CONDUIT    536.85     0  02:35      0.94    0.73    0.69
  WS02004409WS02004410 CONDUIT    537.85     0  02:34      0.98    0.70    0.67
  WS02004407WS02004409 CONDUIT    539.53     0  02:33      1.50    0.19    0.48
  WS02004406WS02004407 CONDUIT    539.57     0  02:33      1.04    0.24    0.63
  WS02004405WS02004406 CONDUIT    539.84     0  02:31      0.70    1.06    0.96
  WS02004404WS02004405 CONDUIT    539.78     0  02:33      0.70    5.29    0.96
  WS02004403WS02004404 CONDUIT    539.73     0  02:33      0.71    0.39    0.93
  WS02004402WS02004403 CONDUIT    539.77     0  02:33      0.73    0.78    0.89
  WS02004139WS02001211 CONDUIT    374.22     0  04:40      0.58    0.47    0.58
  WS02004138WS02004139 CONDUIT    379.34     0  04:40      2.39    0.08    0.43
  WS02003067WS02003066 CONDUIT    535.78     0  02:36      1.20    0.17    0.42
  WS02001213WS02003059 CONDUIT    375.67     0  04:42      0.67    0.62    0.75
  WS02001212WS02001213 CONDUIT    376.33     0  04:41      1.30    0.58    0.45
  WS02001211WS02001212 CONDUIT    377.64     0  04:41      0.76    0.29    0.62
  WS02003072WS02003073 CONDUIT    850.13     0  03:14      1.67    1.84    0.46
  WS02003069WS02003072 CONDUIT    850.39     0  03:13      1.57    0.41    0.48
  WS02003060WS02003069 CONDUIT    850.69     0  03:13      1.82    0.33    0.43
  WS02003059WS02003060 CONDUIT    375.04     0  04:42      0.92    0.24    0.63
  HS02004901HS02004770 CONDUIT     10.98     0  02:14      0.05    0.04    0.33
  HS02004876HS02004881 CONDUIT     36.93     0  02:17      0.59    0.39    0.09
  HS02004870HS02004876 CONDUIT     29.35     0  02:17      0.41    0.02    0.10
  HS02004842HS02004848 CONDUIT      5.61     0  02:29      0.03    0.00    0.28
  HS02004837HS02004842 CONDUIT      5.81     0  02:30      0.41    0.00    0.29
  HS02004830HS02004837 CONDUIT     24.67     0  02:17      0.45    0.02    0.08
  HS02004824HS02004830 CONDUIT     24.81     0  02:17      0.49    0.03    0.07
  HS02004817HS02004824 CONDUIT     40.13     0  02:20      0.17    0.02    0.40
  HS02004770HS02004777 CONDUIT     55.91     0  02:13      0.24    0.10    0.34
  HS02004799HS02004480 CONDUIT    138.06     0  02:15      0.61    0.17    0.32
  HS02004792HS02004799 CONDUIT    126.18     0  02:15      0.70    0.08    0.26
  HS02004788HS02004792 CONDUIT     73.44     0  02:16      0.85    0.05    0.12
  HS02004785HS02004788 CONDUIT     55.49     0  02:16      0.53    0.42    0.15
  HS02004777HS02004785 CONDUIT     55.44     0  02:15      0.29    0.07    0.28
  HS02004480HS02004478 CONDUIT    162.92     0  02:16      0.99    0.69    0.24
  HS02004479HS02004480 CONDUIT     25.53     0  02:18      0.16    0.02    0.31
  HS02004862HS02004870 CONDUIT     21.42     0  02:18      0.48    0.02    0.06
  HS02004848HS02004852 CONDUIT      8.69     0  02:17      0.32    0.01    0.04
  HS02004856HS02004862 CONDUIT     14.54     0  02:17      0.35    0.01    0.06
  HS02004852HS02004856 CONDUIT      8.65     0  02:19      0.13    0.01    0.09
  HS02004802HS02004478 CONDUIT     56.01     0  02:21      0.31    0.05    0.26
  HS02004478WS02006287 CONDUIT    217.35     0  02:17      1.35    0.06    0.18
  HS02004817HS02004807 CONDUIT     41.32     0  02:22      0.11    0.02    0.52
  HS02004807HS02004802 CONDUIT     55.58     0  02:20      0.26    0.11    0.31
  YS02001759YS02001757 CONDUIT    218.01     0  02:55      0.28    0.15    1.00
  YS02001762YS02001759 CONDUIT    120.85     0  03:04      0.18    0.14    1.00
  YS02001765YS02001762 CONDUIT    120.84     0  02:40      0.23    0.11    1.00
  YS02001770YS02001767 CONDUIT    133.98     0  03:03      0.31    0.53    0.98
  YS02001774YS02001770 CONDUIT     46.62     0  03:49      0.14    0.03    0.97
  YS02001779YS02001774 CONDUIT     38.08     0  03:04      0.07    0.02    0.90
  YS02001649YS02001757 CONDUIT    318.81     0  02:53      0.41    0.19    1.00
  YS02001767YS02001765 CONDUIT    127.43     0  02:36      0.26    0.16    1.00
  YS02006561YS02001783 CONDUIT    335.76     0  02:51      1.82    0.17    0.39
  YS02001783YS02001784 CONDUIT    335.77     0  02:52      1.26    0.46    0.52
  YS02001784YS02001785 CONDUIT    336.81     0  02:52      1.34    0.78    0.50
  YS02001788YS02001790 CONDUIT    336.92     0  02:52      1.91    0.25    0.38
  YS02001790YS02001791 CONDUIT    337.07     0  02:53      2.21    0.37    0.34
  YS02001791YS02001793 CONDUIT    337.07     0  02:53      4.46    0.14    0.22
  YS02001910YS02001907 CONDUIT    104.55     0  03:01      0.49    0.06    0.75
  YS02001786YS02001788 CONDUIT    336.85     0  02:52      1.78    0.65    0.40
  YS02001915YS02001910 CONDUIT    104.29     0  03:01      0.45    0.05    0.54
  YS02001918YS02001915 CONDUIT     35.26     0  03:03      0.44    0.02    0.27
  YS02001923YS02001920 CONDUIT     32.42     0  03:02      0.46    0.01    0.14
  YS02001926YS02001923 CONDUIT     32.39     0  03:01      0.50    0.05    0.14
  YS02001929YS02001926 CONDUIT     32.39     0  03:01      0.53    0.02    0.13
  YS02001920YS02001918 CONDUIT     35.27     0  03:02      0.47    0.03    0.15
  YS02001629YS02163301 CONDUIT     94.29     0  03:50      0.13    0.12    0.94
  YS02001619YS02001622 CONDUIT     88.29     0  04:00      0.66    0.13    0.56
  YS02001622YS02001625 CONDUIT     96.04     0  04:12      0.26    0.05    0.72
  YS02001625YS02001629 CONDUIT    119.77     0  04:13      0.26    0.06    0.71
  YS02163301YS02001633 CONDUIT     85.66     0  02:40      0.11    0.08    0.98
  YS02163601YS02164001 CONDUIT    154.47     0  02:56      0.20    0.14    1.00
  YS02164001YS02001641 CONDUIT    152.02     0  03:38      0.20    0.21    1.00
  YS02001641YS02001644 CONDUIT    151.36     0  02:57      0.19    0.49    1.00
  YS02001647YS02001649 CONDUIT    233.33     0  02:52      0.31    0.12    0.93
  YS02006553YS02006556 CONDUIT    228.76     0  02:54      0.33    0.20    0.83
  YS02006556YS02006558 CONDUIT    228.79     0  02:54      0.32    0.18    0.86
  YSB6556YSB1171       CONDUIT     13.82     0  02:18      0.06    0.01    0.58
  YS02001907YS02006553 CONDUIT    228.69     0  02:54      0.27    0.27    0.95
  YS02006558YS02006561 CONDUIT    338.77     0  02:51      2.35    0.75    0.51
  YS02001633YS02163601 CONDUIT    154.84     0  02:53      0.20    0.16    1.00
  YS02001644YS02001647 CONDUIT    221.94     0  02:57      0.29    0.13    0.93
  YS02001745YS02001748 CONDUIT     76.78     0  02:58      1.42    0.03    0.21
  YS02001748YS02001751 CONDUIT    210.72     0  04:01      1.11    0.11    0.48
  YS02001751YS02001754 CONDUIT     94.20     0  03:04      0.98    0.05    0.70
  YS02001754YS02001757 CONDUIT    183.64     0  04:01      0.33    0.07    0.94
  YS02001882YS02001884 CONDUIT      4.33     0  02:09      0.06    0.00    0.48
  YS02001884YS02001887 CONDUIT     12.00     0  02:06      0.06    0.02    0.57
  YS02001890YS02001895 CONDUIT    127.31     0  02:43      0.29    0.06    0.54
  YS02001895YS02001898 CONDUIT    127.39     0  02:42      0.49    0.22    0.41
  YS02001898YS02001901 CONDUIT    127.26     0  02:42      0.34    0.08    0.48
  YS02001901YS02001904 CONDUIT    126.46     0  02:42      0.30    0.20    0.54
  YS02001904YS02001907 CONDUIT    126.51     0  02:42      0.22    0.04    0.70
  YS02001887YS02001890 CONDUIT    127.74     0  02:42      0.25    0.22    0.63
  YS02001652YS02001649 CONDUIT    200.36     0  03:57      0.33    0.10    0.94
  YS02001655YS02001652 CONDUIT    110.22     0  02:37      1.05    0.05    0.74
  YS02001658YS02001655 CONDUIT    198.30     0  03:56      1.28    0.08    0.46
  YS02001661YS02001658 CONDUIT     90.67     0  02:43      1.47    0.04    0.22
  YS02001664YS02001661 CONDUIT     90.67     0  02:43      1.14    0.03    0.16
  YSB1154YSB6556       CONDUIT     13.56     0  02:17      0.19    0.02    0.47
  YSB1174YSB1171       CONDUIT     12.64     0  02:10      0.06    0.02    0.59
  YSB1171HS02004479    CONDUIT     25.27     0  02:18      0.54    0.02    0.46
  HS02004881HS02006253 CONDUIT     41.33     0  02:17      1.70    0.01    0.27
  YS02001793JiankangQianchi CONDUIT    337.07     0  02:53     13.47    0.03    0.55
  YS02001757CaochengTiaoxuchi CONDUIT    568.34     0  02:59      1.29    0.25    0.68
  WSF200WS02003060     CONDUIT    535.87     0  02:36      1.81    0.12    0.32
  1                    CONDUIT    851.41     0  03:15      3.18    0.30    0.37
  2                    CONDUIT    160.97     0  02:28      5.52    0.39    0.43
  3                    CONDUIT    597.65     0  00:00     10.05    0.95    0.86
  4                    CONDUIT      0.00     0  00:00      0.00    0.00    0.00
  CC-Pump-1            PUMP       200.00     0  02:21              1.00
  CC-Pump-2            PUMP       200.00     0  02:21              1.00
  JK-Pump-1            PUMP       300.00     0  00:00              1.00
  JK-Pump-2            PUMP       300.00     0  00:00              1.00
  XR-Pump-1            PUMP        95.00     0  00:30              1.00
  XR-Pump-2            PUMP        95.00     0  00:40              1.00
  XR-Pump-3            PUMP        95.00     0  00:00              1.00
  XR-Pump-4            PUMP        95.00     0  00:20              1.00
  
  
  ***************************
  Flow Classification Summary
  ***************************
  
  -------------------------------------------------------------------------------------
                      Adjusted    ---------- Fraction of Time in Flow Class ---------- 
                       /Actual         Up    Down  Sub   Sup   Up    Down  Norm  Inlet 
  Conduit               Length    Dry  Dry   Dry   Crit  Crit  Crit  Crit  Ltd   Ctrl  
  -------------------------------------------------------------------------------------
  WS02003066WSF200        1.00   0.05  0.02  0.00  0.00  0.93  0.00  0.00  0.61  0.00
  WS02006287WS02006284    1.00   0.03  0.01  0.00  0.68  0.28  0.00  0.00  0.77  0.00
  WS02006284WS02006280    1.00   0.04  0.00  0.00  0.00  0.00  0.00  0.96  0.00  0.00
  WS02006280WS02006229    1.00   0.04  0.00  0.00  0.00  0.00  0.00  0.96  0.00  0.00
  WS02006229WS02006228    1.00   0.00  0.00  0.00  0.98  0.00  0.00  0.02  0.00  0.00
  WS02006256WS02006235    1.00   0.00  0.00  0.00  1.00  0.00  0.00  0.00  0.00  0.00
  WS02006253WS02006251    1.00   0.02  0.01  0.00  0.96  0.00  0.00  0.00  0.00  0.00
  WS02006252WS02006251    1.00   0.08  0.00  0.00  0.00  0.00  0.92  0.00  0.00  0.00
  WS02006251WS02006249    1.00   0.00  0.00  0.00  1.00  0.00  0.00  0.00  0.28  0.00
  WS02006249WS02006248    1.00   0.00  0.02  0.00  0.91  0.00  0.07  0.00  0.00  0.00
  WS02006248WS02006247    1.00   0.02  0.00  0.00  0.97  0.00  0.00  0.01  0.18  0.00
  WS02006247WS02006245    1.00   0.02  0.00  0.00  0.96  0.00  0.00  0.02  0.00  0.00
  WS02006245WS02006243    1.00   0.02  0.00  0.00  0.94  0.00  0.00  0.05  0.02  0.00
  WS02006243WS02006242    1.00   0.01  0.00  0.00  0.99  0.00  0.00  0.00  0.27  0.00
  WS02006242WS02006240    1.00   0.01  0.00  0.00  0.99  0.00  0.00  0.00  0.00  0.00
  WS02006240WS02006239    1.00   0.00  0.00  0.00  0.95  0.00  0.00  0.04  0.02  0.00
  WS02006239WS02006238    1.00   0.00  0.00  0.00  1.00  0.00  0.00  0.00  0.02  0.00
  WS02006238WS02006235    1.00   0.00  0.00  0.00  1.00  0.00  0.00  0.00  0.00  0.00
  WS02006235WS02006234    1.00   0.00  0.00  0.00  0.95  0.00  0.05  0.00  0.00  0.00
  WS02006234WS02006232    1.00   0.00  0.00  0.00  1.00  0.00  0.00  0.00  0.04  0.00
  WS02006232WS02006231    1.00   0.00  0.00  0.00  0.99  0.00  0.01  0.00  0.00  0.00
  WS02006231WS02006230    1.00   0.00  0.00  0.00  0.78  0.00  0.21  0.00  0.00  0.00
  WS02006230WS02006229    1.00   0.00  0.00  0.00  0.98  0.00  0.00  0.02  0.01  0.00
  WS02006228WS02006109    1.00   0.00  0.00  0.00  1.00  0.00  0.00  0.00  0.00  0.00
  WS02006116WS02004401    1.00   0.02  0.00  0.00  0.98  0.00  0.00  0.00  0.00  0.00
  WS02006115WS02006116    1.00   0.02  0.00  0.00  0.97  0.00  0.00  0.01  0.01  0.00
  WS02006113WS02006111    1.00   0.02  0.00  0.00  0.00  0.98  0.00  0.00  0.11  0.00
  WS02006112WS02006115    1.00   0.02  0.00  0.00  0.98  0.00  0.00  0.00  0.00  0.00
  WS02006111WS02006112    1.00   0.02  0.00  0.00  0.98  0.00  0.00  0.00  0.98  0.00
  WS02006110WS02006113    1.00   0.02  0.00  0.00  0.98  0.00  0.00  0.00  0.00  0.00
  WS02006109WS02006110    1.00   0.00  0.02  0.00  0.98  0.00  0.00  0.00  0.00  0.00
  WS02004411WS02004412    1.00   0.05  0.00  0.00  0.95  0.00  0.00  0.00  0.00  0.00
  WS02004401WS02004402    1.00   0.02  0.00  0.00  0.98  0.00  0.00  0.00  0.00  0.00
  WS02004413WS02003067    1.00   0.05  0.01  0.00  0.00  0.00  0.94  0.00  0.00  0.00
  WS02004412WS02004413    1.00   0.05  0.00  0.00  0.95  0.00  0.00  0.00  0.03  0.00
  WS02004410WS02004411    1.00   0.05  0.00  0.00  0.95  0.00  0.00  0.00  0.00  0.00
  WS02004409WS02004410    1.00   0.05  0.00  0.00  0.95  0.00  0.00  0.00  0.00  0.00
  WS02004407WS02004409    1.00   0.05  0.00  0.00  0.95  0.00  0.00  0.00  0.80  0.00
  WS02004406WS02004407    1.00   0.00  0.05  0.00  0.95  0.00  0.00  0.00  0.00  0.00
  WS02004405WS02004406    1.00   0.00  0.00  0.00  1.00  0.00  0.00  0.00  0.02  0.00
  WS02004404WS02004405    1.00   0.00  0.00  0.00  1.00  0.00  0.00  0.00  0.00  0.00
  WS02004403WS02004404    1.00   0.00  0.02  0.00  0.98  0.00  0.00  0.00  0.02  0.00
  WS02004402WS02004403    1.00   0.02  0.00  0.00  0.98  0.00  0.00  0.00  0.00  0.00
  WS02004139WS02001211    1.00   0.00  0.00  0.00  0.99  0.00  0.01  0.00  0.00  0.00
  WS02004138WS02004139    1.00   0.00  0.00  0.00  0.98  0.01  0.00  0.00  1.00  0.00
  WS02003067WS02003066    1.00   0.06  0.00  0.00  0.93  0.00  0.00  0.00  0.00  0.00
  WS02001213WS02003059    1.00   0.00  0.01  0.00  0.99  0.00  0.00  0.00  0.00  0.00
  WS02001212WS02001213    1.00   0.01  0.00  0.00  0.90  0.00  0.09  0.00  0.00  0.00
  WS02001211WS02001212    1.00   0.00  0.01  0.00  0.99  0.00  0.00  0.00  0.00  0.00
  WS02003072WS02003073    1.00   0.00  0.00  0.00  0.00  0.00  0.00  1.00  0.00  0.00
  WS02003069WS02003072    1.00   0.00  0.00  0.00  0.99  0.01  0.00  0.00  0.25  0.00
  WS02003060WS02003069    1.00   0.00  0.00  0.00  0.99  0.01  0.00  0.00  0.12  0.00
  WS02003059WS02003060    1.00   0.00  0.00  0.00  0.99  0.01  0.00  0.00  0.02  0.00
  HS02004901HS02004770    1.00   0.04  0.00  0.00  0.96  0.00  0.00  0.00  0.02  0.00
  HS02004876HS02004881    1.00   0.02  0.00  0.00  0.98  0.00  0.00  0.00  0.00  0.00
  HS02004870HS02004876    1.00   0.01  0.00  0.00  0.99  0.00  0.00  0.00  0.95  0.00
  HS02004842HS02004848    1.00   0.00  0.04  0.00  0.96  0.00  0.00  0.00  0.69  0.00
  HS02004837HS02004842    1.00   0.00  0.00  0.00  0.99  0.01  0.00  0.00  0.11  0.00
  HS02004830HS02004837    1.00   0.00  0.00  0.00  1.00  0.00  0.00  0.00  0.99  0.00
  HS02004824HS02004830    1.00   0.00  0.00  0.00  1.00  0.00  0.00  0.00  0.00  0.00
  HS02004817HS02004824    1.00   0.00  0.00  0.00  1.00  0.00  0.00  0.00  1.00  0.00
  HS02004770HS02004777    1.00   0.00  0.04  0.00  0.96  0.00  0.00  0.00  0.07  0.00
  HS02004799HS02004480    1.00   0.00  0.02  0.00  0.95  0.00  0.03  0.00  0.00  0.00
  HS02004792HS02004799    1.00   0.00  0.00  0.00  0.99  0.01  0.00  0.00  0.98  0.00
  HS02004788HS02004792    1.00   0.00  0.00  0.00  0.98  0.02  0.00  0.00  0.98  0.00
  HS02004785HS02004788    1.00   0.00  0.00  0.00  1.00  0.00  0.00  0.00  0.00  0.00
  HS02004777HS02004785    1.00   0.00  0.00  0.00  1.00  0.00  0.00  0.00  0.20  0.00
  HS02004480HS02004478    1.00   0.04  0.00  0.00  0.72  0.00  0.00  0.24  0.00  0.00
  HS02004479HS02004480    1.00   0.02  0.00  0.00  0.98  0.00  0.00  0.00  0.16  0.00
  HS02004862HS02004870    1.00   0.00  0.00  0.00  1.00  0.00  0.00  0.00  0.06  0.00
  HS02004848HS02004852    1.00   0.04  0.00  0.00  0.96  0.00  0.00  0.00  0.71  0.00
  HS02004856HS02004862    1.00   0.00  0.06  0.00  0.94  0.00  0.00  0.00  0.74  0.00
  HS02004852HS02004856    1.00   0.04  0.01  0.00  0.96  0.00  0.00  0.00  0.83  0.00
  HS02004802HS02004478    1.00   0.04  0.00  0.00  0.96  0.00  0.00  0.00  0.01  0.00
  HS02004478WS02006287    1.00   0.05  0.00  0.00  0.87  0.08  0.00  0.00  0.77  0.00
  HS02004817HS02004807    1.00   0.00  0.04  0.00  0.96  0.00  0.00  0.00  0.00  0.00
  HS02004807HS02004802    1.00   0.04  0.00  0.00  0.96  0.00  0.00  0.00  0.01  0.00
  YS02001759YS02001757    1.00   0.00  0.00  0.00  1.00  0.00  0.00  0.00  0.17  0.00
  YS02001762YS02001759    1.00   0.00  0.00  0.00  1.00  0.00  0.00  0.00  0.04  0.00
  YS02001765YS02001762    1.00   0.00  0.00  0.00  1.00  0.00  0.00  0.00  0.22  0.00
  YS02001770YS02001767    1.00   0.00  0.00  0.00  1.00  0.00  0.00  0.00  0.00  0.00
  YS02001774YS02001770    1.00   0.00  0.04  0.00  0.95  0.00  0.00  0.00  0.07  0.00
  YS02001779YS02001774    1.00   0.00  0.00  0.00  1.00  0.00  0.00  0.00  0.26  0.00
  YS02001649YS02001757    1.00   0.00  0.00  0.00  1.00  0.00  0.00  0.00  0.19  0.00
  YS02001767YS02001765    1.00   0.00  0.00  0.00  1.00  0.00  0.00  0.00  0.01  0.00
  YS02006561YS02001783    1.00   0.06  0.00  0.00  0.00  0.94  0.00  0.00  0.73  0.00
  YS02001783YS02001784    1.00   0.00  0.06  0.00  0.94  0.00  0.00  0.00  0.00  0.00
  YS02001784YS02001785    1.00   0.00  0.00  0.00  1.00  0.00  0.00  0.00  0.25  0.00
  YS02001788YS02001790    1.00   0.00  0.00  0.00  0.07  0.93  0.00  0.00  0.76  0.00
  YS02001790YS02001791    1.00   0.00  0.00  0.00  0.02  0.98  0.00  0.00  0.55  0.00
  YS02001791YS02001793    1.00   0.00  0.00  0.00  0.00  1.00  0.00  0.00  0.00  0.00
  YS02001910YS02001907    1.00   0.00  0.00  0.00  0.98  0.00  0.00  0.02  0.13  0.00
  YS02001786YS02001788    1.00   0.00  0.00  0.00  0.07  0.93  0.00  0.00  0.00  0.00
  YS02001915YS02001910    1.00   0.00  0.00  0.00  1.00  0.00  0.00  0.00  0.24  0.00
  YS02001918YS02001915    1.00   0.00  0.01  0.00  0.99  0.00  0.00  0.00  0.82  0.00
  YS02001923YS02001920    1.00   0.00  0.00  0.00  1.00  0.00  0.00  0.00  1.00  0.00
  YS02001926YS02001923    1.00   0.00  0.03  0.00  0.00  0.00  0.97  0.00  0.00  0.00
  YS02001929YS02001926    1.00   0.00  0.04  0.00  0.96  0.00  0.00  0.00  0.87  0.00
  YS02001920YS02001918    1.00   0.00  0.01  0.00  0.99  0.00  0.00  0.00  0.00  0.00
  YS02001629YS02163301    1.00   0.05  0.00  0.00  0.94  0.00  0.00  0.00  0.00  0.00
  YS02001619YS02001622    1.00   0.04  0.00  0.00  0.96  0.00  0.00  0.00  0.00  0.00
  YS02001622YS02001625    1.00   0.04  0.00  0.00  0.96  0.00  0.00  0.00  0.13  0.00
  YS02001625YS02001629    1.00   0.04  0.02  0.00  0.92  0.00  0.02  0.00  0.00  0.00
  YS02163301YS02001633    1.00   0.00  0.05  0.00  0.95  0.00  0.00  0.00  0.00  0.00
  YS02163601YS02164001    1.00   0.00  0.03  0.00  0.97  0.00  0.00  0.00  0.00  0.00
  YS02164001YS02001641    1.00   0.01  0.02  0.00  0.97  0.00  0.00  0.00  0.07  0.00
  YS02001641YS02001644    1.00   0.00  0.01  0.00  0.99  0.00  0.00  0.00  0.00  0.00
  YS02001647YS02001649    1.00   0.00  0.06  0.00  0.94  0.00  0.00  0.00  0.01  0.00
  YS02006553YS02006556    1.00   0.02  0.00  0.00  0.98  0.00  0.00  0.00  0.03  0.00
  YS02006556YS02006558    1.00   0.00  0.00  0.00  1.00  0.00  0.00  0.00  0.00  0.00
  YSB6556YSB1171          1.00   0.02  0.02  0.00  0.96  0.00  0.00  0.00  0.00  0.00
  YS02001907YS02006553    1.00   0.00  0.01  0.00  0.98  0.00  0.00  0.00  0.00  0.00
  YS02006558YS02006561    1.00   0.06  0.00  0.00  0.00  0.94  0.00  0.00  0.70  0.00
  YS02001633YS02163601    1.00   0.00  0.01  0.00  0.99  0.00  0.00  0.00  0.19  0.00
  YS02001644YS02001647    1.00   0.00  0.06  0.00  0.94  0.00  0.00  0.00  0.00  0.00
  YS02001745YS02001748    1.00   0.00  0.00  0.00  0.52  0.09  0.00  0.39  0.44  0.00
  YS02001748YS02001751    1.00   0.00  0.00  0.00  0.97  0.03  0.00  0.00  0.35  0.00
  YS02001751YS02001754    1.00   0.00  0.00  0.00  0.93  0.00  0.00  0.07  0.02  0.00
  YS02001754YS02001757    1.00   0.00  0.00  0.00  0.99  0.01  0.00  0.00  0.26  0.00
  YS02001882YS02001884    1.00   0.05  0.00  0.00  0.95  0.00  0.00  0.00  0.00  0.00
  YS02001884YS02001887    1.00   0.03  0.01  0.00  0.96  0.00  0.00  0.00  0.00  0.00
  YS02001890YS02001895    1.00   0.00  0.05  0.00  0.94  0.00  0.00  0.00  0.00  0.00
  YS02001895YS02001898    1.00   0.06  0.00  0.00  0.94  0.00  0.01  0.00  0.00  0.00
  YS02001898YS02001901    1.00   0.05  0.00  0.00  0.94  0.00  0.00  0.00  0.02  0.00
  YS02001901YS02001904    1.00   0.05  0.00  0.00  0.95  0.00  0.00  0.00  0.00  0.00
  YS02001904YS02001907    1.00   0.00  0.05  0.00  0.95  0.00  0.00  0.00  0.00  0.00
  YS02001887YS02001890    1.00   0.00  0.00  0.00  0.98  0.00  0.02  0.00  0.00  0.00
  YS02001652YS02001649    1.00   0.00  0.00  0.00  1.00  0.00  0.00  0.00  0.25  0.00
  YS02001655YS02001652    1.00   0.00  0.00  0.00  0.93  0.00  0.00  0.07  0.02  0.00
  YS02001658YS02001655    1.00   0.00  0.05  0.00  0.92  0.03  0.00  0.00  0.29  0.00
  YS02001661YS02001658    1.00   0.05  0.00  0.00  0.60  0.35  0.00  0.00  0.74  0.00
  YS02001664YS02001661    1.00   0.04  0.00  0.00  0.73  0.24  0.00  0.00  0.86  0.00
  YSB1154YSB6556          1.00   0.04  0.00  0.00  0.96  0.00  0.00  0.00  0.02  0.00
  YSB1174YSB1171          1.00   0.02  0.01  0.00  0.97  0.00  0.00  0.00  0.00  0.00
  YSB1171HS02004479       1.00   0.02  0.00  0.00  0.98  0.00  0.00  0.00  0.13  0.00
  HS02004881HS02006253    1.00   0.02  0.00  0.00  0.87  0.00  0.00  0.10  0.65  0.00
  YS02001793JiankangQianchi    1.00   0.00  0.00  0.00  0.14  0.86  0.00  0.00  0.19  0.00
  YS02001757CaochengTiaoxuchi    1.00   0.00  0.08  0.00  0.92  0.00  0.00  0.00  0.00  0.00
  WSF200WS02003060        1.00   0.00  0.05  0.00  0.54  0.41  0.00  0.00  0.22  0.00
  1                       1.00   0.00  0.00  0.00  0.00  1.00  0.00  0.00  0.37  0.00
  2                       1.00   0.45  0.00  0.00  0.00  0.55  0.00  0.00  0.14  0.00
  3                       1.00   0.21  0.00  0.00  0.00  0.79  0.00  0.00  0.10  0.00
  4                       1.00   1.00  0.00  0.00  0.00  0.00  0.00  0.00  0.00  0.00
  
  
  *************************
  Conduit Surcharge Summary
  *************************
  
  ----------------------------------------------------------------------------
                                                           Hours        Hours 
                         --------- Hours Full --------   Above Full   Capacity
  Conduit                Both Ends  Upstream  Dnstream   Normal Flow   Limited
  ----------------------------------------------------------------------------
  WS02006229WS02006228        2.12      2.52      2.12      4.86         2.11
  WS02006256WS02006235        5.66      5.66      7.39      1.42         0.01
  WS02006252WS02006251        1.94      1.94      3.35      2.98         0.01
  WS02006251WS02006249        0.01      0.01      0.01      1.95         0.01
  WS02006249WS02006248        0.01      0.01      0.01      4.91         0.01
  WS02006247WS02006245        0.01      0.01      0.01      5.08         0.01
  WS02006245WS02006243        0.01      0.01      0.02      0.07         0.01
  WS02006243WS02006242        0.10      0.10      1.60      0.01         0.01
  WS02006242WS02006240        0.50      0.50      2.36      3.52         0.01
  WS02006240WS02006239        0.57      0.57      0.63      0.19         0.01
  WS02006239WS02006238        1.98      1.99      2.11      0.47         0.29
  WS02006238WS02006235        1.83      1.83      2.77      0.01         0.01
  WS02006235WS02006234        0.51      0.51      1.49      5.67         0.01
  WS02006234WS02006232        0.69      0.69      2.87      0.01         0.01
  WS02006232WS02006231        0.01      0.01      2.87      0.01         0.01
  WS02006231WS02006230        0.01      0.01      0.04      5.64         0.01
  WS02006230WS02006229        3.89      4.57      3.89      5.71         3.89
  WS02006228WS02006109        2.31      3.26      2.31      5.36         2.30
  WS02006112WS02006115        0.01      0.01      0.57      0.01         0.01
  WS02006111WS02006112        0.01      0.01      5.03      0.01         0.01
  WS02006110WS02006113        0.01      0.01      2.87      0.01         0.01
  WS02006109WS02006110        0.17      0.17      3.27      0.18         0.01
  WS02004405WS02004406        0.01      0.01      0.01      0.25         0.01
  WS02004404WS02004405        0.01      0.01      0.01      5.63         0.01
  WS02003072WS02003073        0.01      0.01      0.01      5.37         0.01
  YS02001759YS02001757        2.24      2.24      3.23      0.01         0.01
  YS02001762YS02001759        1.16      1.16      2.24      0.01         0.01
  YS02001765YS02001762        0.18      0.18      1.16      0.01         0.01
  YS02001774YS02001770        0.01      0.01      0.59      0.01         0.01
  YS02001779YS02001774        0.01      0.01      0.59      0.01         0.01
  YS02001649YS02001757        1.68      1.68      3.23      0.01         0.01
  YS02001767YS02001765        0.01      0.01      0.18      0.01         0.01
  YS02163301YS02001633        0.01      0.01      0.32      0.01         0.01
  YS02163601YS02164001        0.22      0.22      1.44      0.01         0.01
  YS02164001YS02001641        0.22      0.22      0.51      0.01         0.01
  YS02001641YS02001644        0.51      0.51      0.58      0.01         0.02
  YS02001647YS02001649        0.01      0.01      1.68      0.01         0.01
  YS02001633YS02163601        0.01      0.01      1.44      0.01         0.01
  YS02001644YS02001647        0.01      0.01      0.58      0.01         0.01
  YS02001754YS02001757        0.01      0.01      3.23      0.01         0.01
  YS02001652YS02001649        0.01      0.01      1.68      0.01         0.01
  YS02001793JiankangQianchi        0.01      0.01      0.42      0.01         0.01
  YS02001757CaochengTiaoxuchi        0.01      0.01      3.23      0.01         0.01
  3                           0.01      0.01      0.01      0.01         0.01
  
  
  ***************
  Pumping Summary
  ***************
  
  ---------------------------------------------------------------------------------------------------------
                                                  Min       Avg       Max     Total     Power    % Time Off
                        Percent   Number of      Flow      Flow      Flow    Volume     Usage    Pump Curve
  Pump                 Utilized   Start-Ups       LPS       LPS       LPS  10^6 ltr     Kw-hr    Low   High
  ---------------------------------------------------------------------------------------------------------
  CC-Pump-1               66.74           2      0.00    165.61    200.00     3.074     12.91    0.0   77.4
  CC-Pump-2               66.74           5      0.00    128.29    200.00     2.474     10.43    0.0   74.2
  JK-Pump-1               78.72           9      0.00    135.37    300.00     2.127     40.91    0.0    0.0
  JK-Pump-2               85.10           6      0.00    134.74    300.00     2.341     44.37    0.0    0.0
  XR-Pump-1               78.72           5      0.00     72.39     95.00     1.567     13.15    0.0    0.0
  XR-Pump-2               85.09           9      0.00     57.68     95.00     1.453     11.66    0.0    0.0
  XR-Pump-3               82.97           9      0.00     58.72     95.00     1.397     11.02    0.0    0.0
  XR-Pump-4               89.35           7      0.00     69.63     95.00     1.795     14.42    0.0    0.0
  

  Analysis begun on:  Tue Dec 21 14:07:03 2021
  Analysis ended on:  Tue Dec 21 14:07:06 2021
  Total elapsed time: 00:00:03