
  EPA STORM WATER MANAGEMENT MODEL - VERSION 5.1 (Build 5.3.0.dev0)
  --------------------------------------------------------------

  WARNING 04: minimum elevation drop used for Conduit WS02004404WS02004405
  WARNING 03: negative offset ignored for Link YS02001904YS02001907
  
  *********************************************************
  NOTE: The summary statistics displayed in this report are
  based on results found at every computational time step,  
  not just on results from each reporting time step.
  *********************************************************
  
  ****************
  Analysis Options
  ****************
  Flow Units ............... LPS
  Process Models:
    Rainfall/Runoff ........ YES
    RDII ................... NO
    Snowmelt ............... NO
    Groundwater ............ NO
    Flow Routing ........... YES
    Ponding Allowed ........ NO
    Water Quality .......... NO
  Infiltration Method ...... HORTON
  Flow Routing Method ...... DYNWAVE
  Surcharge Method ......... EXTRAN
  Starting Date ............ 08/28/2015 08:00:00
  Ending Date .............. 08/28/2015 15:50:00
  Antecedent Dry Days ...... 8.0
  Report Time Step ......... 00:01:00
  Wet Time Step ............ 00:01:00
  Dry Time Step ............ 00:01:00
  Routing Time Step ........ 5.00 sec
  Variable Time Step ....... YES
  Maximum Trials ........... 8
  Number of Threads ........ 4
  Head Tolerance ........... 0.001500 m
  
  
  **************************        Volume         Depth
  Runoff Quantity Continuity     hectare-m            mm
  **************************     ---------       -------
  Total Precipitation ......         3.147         6.891
  Evaporation Loss .........         0.000         0.000
  Infiltration Loss ........         0.796         1.742
  Surface Runoff ...........         1.432         3.135
  Final Storage ............         0.920         2.015
  Continuity Error (%) .....        -0.018
  
  
  **************************        Volume        Volume
  Flow Routing Continuity        hectare-m      10^6 ltr
  **************************     ---------     ---------
  Dry Weather Inflow .......         0.616         6.165
  Wet Weather Inflow .......         1.431        14.311
  Groundwater Inflow .......         0.000         0.000
  RDII Inflow ..............         0.000         0.000
  External Inflow ..........         0.102         1.024
  External Outflow .........         1.922        19.222
  Flooding Loss ............         0.028         0.284
  Evaporation Loss .........         0.000         0.000
  Exfiltration Loss ........         0.000         0.000
  Initial Stored Volume ....         0.076         0.761
  Final Stored Volume ......         0.415         4.146
  Continuity Error (%) .....        -6.251
  
  
  *************************
  Highest Continuity Errors
  *************************
  Node JK-storage (-31.38%)
  Node HS02004842 (25.41%)
  Node YS02001884 (19.95%)
  Node YS02001774 (11.43%)
  Node YSB1171 (5.83%)
  
  
  ***************************
  Time-Step Critical Elements
  ***************************
  Link WS02006252WS02006251 (49.50%)
  Link 3 (38.69%)
  Link WS02006238WS02006235 (5.12%)
  Link WS02006280WS02006229 (1.82%)
  
  
  ********************************
  Highest Flow Instability Indexes
  ********************************
  Link WS02006113WS02006111 (34)
  Link WS02006111WS02006112 (23)
  Link YS02006558YS02006561 (15)
  Link WS02006252WS02006251 (14)
  Link YS02164001YS02001641 (12)
  
  
  *************************
  Routing Time Step Summary
  *************************
  Minimum Time Step           :     0.11 sec
  Average Time Step           :     0.85 sec
  Maximum Time Step           :     5.00 sec
  Percent in Steady State     :    -0.00
  Average Iterations per Step :     3.68
  Percent Not Converging      :    20.65
  
  
  ***************************
  Subcatchment Runoff Summary
  ***************************
  
  ------------------------------------------------------------------------------------------------------------------------------
                            Total      Total      Total      Total     Imperv       Perv      Total       Total     Peak  Runoff
                           Precip      Runon       Evap      Infil     Runoff     Runoff     Runoff      Runoff   Runoff   Coeff
  Subcatchment                 mm         mm         mm         mm         mm         mm         mm    10^6 ltr      LPS
  ------------------------------------------------------------------------------------------------------------------------------
  sub0                       6.89       0.00       0.00       0.48       5.14       0.00       5.14        0.00     1.72   0.746
  sub1                       6.89       0.00       0.00       0.76       4.88       0.00       4.88        0.03     9.27   0.708
  sub2                       6.89       0.00       0.00       2.55       3.43       0.00       3.43        0.03     8.25   0.498
  sub3                       6.89       0.00       0.00       2.55       3.40       0.00       3.40        0.08    17.12   0.493
  sub4                       6.89       0.00       0.00       0.76       4.73       0.00       4.73        0.10    19.36   0.687
  sub5                       6.89       0.00       0.00       0.48       5.10       0.00       5.10        0.06    16.48   0.740
  sub7                       6.89       0.00       0.00       0.62       5.02       0.00       5.02        0.02     5.74   0.728
  sub8                       6.89       0.00       0.00       0.62       5.01       0.00       5.01        0.03    10.18   0.727
  sub9                       6.89       0.00       0.00       0.62       5.00       0.00       5.00        0.02     7.56   0.726
  sub10                      6.89       0.00       0.00       0.55       5.05       0.00       5.05        0.06    16.42   0.733
  sub11                      6.89       0.00       0.00       0.55       5.06       0.00       5.06        0.06    19.13   0.735
  sub12                      6.89       0.00       0.00       0.90       4.81       0.00       4.81        0.04    15.99   0.697
  sub14                      6.89       0.00       0.00       0.62       5.00       0.00       5.00        0.05    14.78   0.726
  sub15                      6.89       0.00       0.00       2.07       3.84       0.00       3.84        0.07    20.07   0.558
  sub16                      6.89       0.00       0.00       2.27       3.70       0.00       3.70        0.04    14.12   0.537
  sub17                      6.89       0.00       0.00       2.20       3.75       0.00       3.75        0.03    11.42   0.544
  sub22                      6.89       0.00       0.00       2.96       3.14       0.00       3.14        0.20    65.39   0.456
  sub23                      6.89       0.00       0.00       2.55       3.47       0.00       3.47        0.17    55.59   0.504
  sub60                      6.89       0.00       0.00       0.83       3.52       0.00       3.52        1.07   103.27   0.511
  sub61                      6.89       0.00       0.00       1.17       3.72       0.00       3.72        1.15   128.06   0.540
  sub62                      6.89       0.00       0.00       0.55       4.00       0.00       4.00        1.23   131.31   0.581
  sub63                      6.89       0.00       0.00       2.00       3.30       0.00       3.30        1.00   118.97   0.479
  sub64                      6.89       0.00       0.00       1.03       3.37       0.00       3.37        1.02    98.15   0.488
  sub65                      6.89       0.00       0.00       0.90       3.41       0.00       3.41        1.05    99.66   0.495
  sub66                      6.89       0.00       0.00       2.00       2.93       0.00       2.93        0.90    89.65   0.425
  sub67                      6.89       0.00       0.00       0.55       4.36       0.00       4.36        1.35   166.79   0.633
  sub68                      6.89       0.00       0.00       0.96       3.95       0.00       3.95        1.21   141.17   0.573
  sub69                      6.89       0.00       0.00       1.03       4.22       0.00       4.22        0.99   138.50   0.612
  sub70                      6.89       4.31       0.00       3.81       5.29       0.00       5.29        1.21   116.43   0.473
  sub71                      6.89       0.00       0.00       0.55       3.84       0.00       3.84        0.91    92.03   0.558
  sub72                      6.89       0.00       0.00       0.48       2.78       0.00       2.78        0.57    44.19   0.404
  sub73                      6.89       5.15       0.00       4.09       5.48       0.00       5.48        1.29   100.82   0.455
  sub74                      6.89       0.00       0.00       5.17       1.27       0.00       1.27        0.51    76.91   0.184
  
  
  ******************
  Node Depth Summary
  ******************
  
  ---------------------------------------------------------------------------------
                                 Average  Maximum  Maximum  Time of Max    Reported
                                   Depth    Depth      HGL   Occurrence   Max Depth
  Node                 Type       Meters   Meters   Meters  days hr:min      Meters
  ---------------------------------------------------------------------------------
  WS02001211           JUNCTION     0.67     0.79     5.63     0  02:49        0.79
  WS02001212           JUNCTION     0.40     0.51     5.57     0  02:48        0.51
  WS02001213           JUNCTION     0.63     0.76     5.52     0  02:47        0.76
  WS02003069           JUNCTION     0.45     0.58     5.17     0  02:47        0.58
  WS02003072           JUNCTION     0.52     0.64     5.01     0  02:47        0.64
  WS02003073           JUNCTION     0.31     0.39     4.46     0  02:48        0.39
  WS02003060           JUNCTION     0.40     0.51     5.45     0  02:46        0.51
  WS02003066           JUNCTION     0.24     0.30     5.85     0  02:35        0.30
  WS02003059           JUNCTION     0.69     0.81     5.50     0  02:47        0.81
  WS02003067           JUNCTION     0.59     0.70     6.02     0  02:35        0.70
  WS02004401           JUNCTION     0.69     0.85     6.85     0  02:32        0.85
  WS02004402           JUNCTION     0.72     0.88     6.84     0  02:31        0.88
  WS02004403           JUNCTION     0.74     0.89     6.82     0  02:31        0.89
  WS02004404           JUNCTION     0.82     0.97     6.82     0  02:32        0.97
  WS02004406           JUNCTION     0.82     0.96     6.79     0  02:31        0.96
  WS02004409           JUNCTION     0.51     0.67     6.44     0  02:39        0.67
  WS02004410           JUNCTION     0.53     0.68     6.40     0  02:40        0.68
  WS02004411           JUNCTION     0.55     0.69     6.37     0  02:40        0.69
  WS02004412           JUNCTION     0.56     0.70     6.34     0  02:40        0.70
  WS02004413           JUNCTION     0.72     0.86     6.33     0  02:41        0.86
  WS02004405           JUNCTION     0.81     0.96     6.81     0  02:31        0.96
  WS02006109           JUNCTION     0.78     0.97     7.59     0  02:27        0.97
  WS02006110           JUNCTION     0.77     0.92     7.51     0  02:27        0.92
  WS02006111           JUNCTION     0.23     0.29     6.99     0  02:28        0.29
  WS02006112           JUNCTION     0.86     1.06     6.94     0  02:33        1.05
  WS02006113           JUNCTION     0.35     0.45     7.35     0  02:29        0.45
  WS02006115           JUNCTION     0.59     0.75     6.89     0  02:32        0.75
  WS02006116           JUNCTION     0.67     0.83     6.87     0  02:32        0.83
  WS02006230           JUNCTION     0.77     1.01     7.76     0  02:38        1.01
  WS02006231           JUNCTION     0.51     0.69     7.81     0  02:42        0.69
  WS02006232           JUNCTION     0.65     0.82     7.86     0  02:42        0.82
  WS02006234           JUNCTION     0.58     0.76     7.92     0  02:42        0.76
  WS02006235           JUNCTION     0.61     0.80     7.96     0  02:50        0.80
  WS02006238           JUNCTION     0.64     0.82     7.97     0  02:50        0.82
  WS02006240           JUNCTION     0.54     0.75     8.04     0  02:50        0.75
  WS02006242           JUNCTION     0.60     0.81     8.08     0  02:50        0.81
  WS02006243           JUNCTION     0.48     0.70     8.12     0  02:41        0.70
  WS02006245           JUNCTION     0.46     0.67     8.16     0  02:41        0.67
  WS02006247           JUNCTION     0.48     0.68     8.18     0  02:41        0.68
  WS02006248           JUNCTION     0.42     0.61     8.20     0  02:41        0.61
  WS02006249           JUNCTION     0.45     0.62     8.22     0  02:42        0.62
  WS02006239           JUNCTION     0.60     0.80     8.00     0  02:50        0.80
  WS02006251           JUNCTION     0.44     0.66     8.33     0  02:40        0.65
  WS02006252           JUNCTION     0.40     0.59     8.84     0  04:46        0.59
  WS02006253           JUNCTION     0.47     0.68     8.33     0  02:40        0.68
  WS02006256           JUNCTION     1.06     1.21     8.15     0  02:50        1.21
  WS02004138           JUNCTION     0.15     0.19     7.44     0  02:42        0.19
  WS02004407           JUNCTION     0.23     0.30     6.61     0  02:31        0.30
  WS02006228           JUNCTION     0.78     1.01     7.66     0  02:27        1.01
  WS02006229           JUNCTION     0.76     1.01     7.70     0  02:28        1.01
  WS02006280           JUNCTION     0.06     0.16     8.43     0  02:17        0.16
  WS02006284           JUNCTION     0.35     0.50     8.90     0  02:16        0.50
  WS02006287           JUNCTION     0.09     0.24     9.19     0  02:16        0.24
  WSF200               JUNCTION     0.23     0.31     5.54     0  02:33        0.31
  HS02004901           JUNCTION     0.11     0.25    10.07     0  02:14        0.25
  HS02004881           JUNCTION     0.01     0.03     9.06     0  02:16        0.03
  HS02004876           JUNCTION     0.04     0.11     9.14     0  02:12        0.11
  HS02004870           JUNCTION     0.01     0.05     9.33     0  02:17        0.05
  HS02004862           JUNCTION     0.02     0.05     9.44     0  02:18        0.05
  HS02004856           JUNCTION     0.08     0.11     9.54     0  02:17        0.11
  HS02004852           JUNCTION     0.01     0.03     9.54     0  02:18        0.03
  HS02004848           JUNCTION     0.01     0.03     9.63     0  02:17        0.03
  HS02004842           JUNCTION     0.33     0.36     9.63     0  02:17        0.36
  HS02004837           JUNCTION     0.03     0.05     9.63     0  02:17        0.05
  HS02004830           JUNCTION     0.04     0.07     9.54     0  02:17        0.07
  HS02004824           JUNCTION     0.02     0.04     9.45     0  02:20        0.04
  HS02004817           JUNCTION     0.43     0.54     9.39     0  02:17        0.54
  HS02004807           JUNCTION     0.12     0.22     9.39     0  02:17        0.22
  HS02004802           JUNCTION     0.15     0.26     9.38     0  02:17        0.26
  HS02004799           JUNCTION     0.11     0.28     9.50     0  02:14        0.28
  HS02004792           JUNCTION     0.03     0.11     9.64     0  02:14        0.11
  HS02004788           JUNCTION     0.02     0.08     9.98     0  02:15        0.08
  HS02004785           JUNCTION     0.04     0.15    10.05     0  02:14        0.15
  HS02004777           JUNCTION     0.14     0.27    10.07     0  02:14        0.27
  HS02004770           JUNCTION     0.11     0.24    10.07     0  02:14        0.24
  HS02004480           JUNCTION     0.07     0.22     9.46     0  02:15        0.22
  HS02004479           JUNCTION     0.11     0.26     9.46     0  02:15        0.26
  HS02004478           JUNCTION     0.05     0.14     9.37     0  02:16        0.14
  YS02001745           JUNCTION     0.15     0.32     7.83     0  04:37        0.31
  YS02001748           JUNCTION     0.52     0.76     7.84     0  04:37        0.76
  YS02001751           JUNCTION     0.71     1.43     8.31     0  04:38        1.34
  YS02001754           JUNCTION     0.96     1.65     8.26     0  03:44        1.47
  YS02001762           JUNCTION     1.15     1.70     8.10     0  04:24        1.55
  YS02001765           JUNCTION     1.11     1.73     8.18     0  04:24        1.53
  YS02001767           JUNCTION     1.07     1.76     8.25     0  04:24        1.53
  YS02001770           JUNCTION     1.07     1.87     8.37     0  04:24        1.58
  YS02001774           JUNCTION     1.13     1.97     8.39     0  04:24        1.66
  YS02001779           JUNCTION     0.89     1.68     8.37     0  04:23        1.41
  YS02001882           JUNCTION     0.32     0.53     7.25     0  02:51        0.53
  YS02001884           JUNCTION     0.42     0.63     7.25     0  02:56        0.63
  YS02001759           JUNCTION     1.19     1.63     8.00     0  04:24        1.54
  YS02001887           JUNCTION     0.49     0.71     7.25     0  02:56        0.71
  YS02001890           JUNCTION     0.52     0.74     7.25     0  02:54        0.74
  YS02001898           JUNCTION     0.29     0.50     7.23     0  02:54        0.50
  YS02001901           JUNCTION     0.41     0.62     7.23     0  02:53        0.62
  YS02001904           JUNCTION     0.39     0.60     7.23     0  02:53        0.60
  YS02001907           JUNCTION     0.72     0.94     7.23     0  02:54        0.94
  YS02001910           JUNCTION     0.51     0.72     7.23     0  02:54        0.72
  YS02001915           JUNCTION     0.31     0.51     7.23     0  02:53        0.51
  YS02001918           JUNCTION     0.09     0.16     7.23     0  02:55        0.16
  YS02001619           JUNCTION     0.67     0.87     7.80     0  04:34        0.85
  YS02001629           JUNCTION     1.02     1.27     7.82     0  04:34        1.27
  YS02001641           JUNCTION     1.12     1.46     7.89     0  04:12        1.38
  YS02001644           JUNCTION     1.13     1.50     7.93     0  04:12        1.39
  YS02001652           JUNCTION     0.97     1.67     8.27     0  04:12        1.25
  YS02001655           JUNCTION     0.74     1.88     8.73     0  04:12        1.03
  YS02001920           JUNCTION     0.19     0.24     7.25     0  02:57        0.24
  YS02001923           JUNCTION     0.07     0.10     7.36     0  03:01        0.10
  YS02001926           JUNCTION     0.16     0.20     7.64     0  03:01        0.20
  YS02001929           JUNCTION     0.07     0.10     7.79     0  03:01        0.10
  YS02001658           JUNCTION     0.47     0.71     7.85     0  04:40        0.71
  YS02001661           JUNCTION     0.25     0.41     7.82     0  04:41        0.40
  YS02001664           JUNCTION     0.08     0.13     8.06     0  02:45        0.13
  YS02001622           JUNCTION     0.69     0.89     7.79     0  04:34        0.88
  YS02001633           JUNCTION     1.11     1.38     7.84     0  04:10        1.35
  YS02001649           JUNCTION     1.16     1.57     7.96     0  04:12        1.44
  YS02001757           JUNCTION     1.29     1.70     7.96     0  03:44        1.65
  YS02001895           JUNCTION     0.29     0.49     7.24     0  02:55        0.49
  YS02001625           JUNCTION     0.97     1.19     7.79     0  04:35        1.18
  YS02163301           JUNCTION     1.05     1.31     7.83     0  04:34        1.30
  YS02163601           JUNCTION     1.16     1.47     7.87     0  04:12        1.41
  YS02164001           JUNCTION     1.10     1.44     7.90     0  04:12        1.35
  YS02001647           JUNCTION     0.96     1.36     7.97     0  04:12        1.22
  YSB1154              JUNCTION     0.24     0.41     9.47     0  02:15        0.41
  YSB6556              JUNCTION     0.14     0.30     9.47     0  02:15        0.30
  YSB1174              JUNCTION     0.20     0.36     9.47     0  02:15        0.36
  YSB1171              JUNCTION     0.39     0.56     9.47     0  02:15        0.56
  YS02006553           JUNCTION     0.72     0.94     7.23     0  02:54        0.94
  YS02006561           JUNCTION     0.16     0.27     6.93     0  02:48        0.27
  YS02006556           JUNCTION     0.70     0.91     7.22     0  02:53        0.91
  YS02006558           JUNCTION     0.74     0.95     7.22     0  02:53        0.95
  YS02001783           JUNCTION     0.28     0.48     6.62     0  02:57        0.48
  YS02001784           JUNCTION     0.31     0.50     6.57     0  02:57        0.50
  YS02001786           JUNCTION     0.26     0.42     6.45     0  02:57        0.42
  YS02001788           JUNCTION     0.19     0.32     6.30     0  02:57        0.32
  YS02001790           JUNCTION     0.24     0.39     6.04     0  02:58        0.39
  YS02001791           JUNCTION     0.15     0.25     5.72     0  02:52        0.25
  YS02001793           JUNCTION     0.10     0.16     5.00     0  02:56        0.16
  WS02004139           JUNCTION     0.61     0.74     5.65     0  02:49        0.74
  WSC                  OUTFALL      0.31     0.39     1.06     0  02:48        0.39
  3                    OUTFALL      0.10     0.21     6.21     0  02:50        0.21
  4                    OUTFALL      0.03     0.12     7.12     0  02:42        0.12
  5                    OUTFALL      0.00     0.00     5.00     0  00:00        0.00
  JK-storage           STORAGE      0.17     3.00     3.80     0  00:00        2.70
  CC-storage           STORAGE      0.51     0.73     7.73     0  04:37        0.73
  XR-storage           STORAGE      5.98     7.72     5.72     0  04:24        7.72
  
  
  *******************
  Node Inflow Summary
  *******************
  
  -------------------------------------------------------------------------------------------------
                                  Maximum  Maximum                  Lateral       Total        Flow
                                  Lateral    Total  Time of Max      Inflow      Inflow     Balance
                                   Inflow   Inflow   Occurrence      Volume      Volume       Error
  Node                 Type           LPS      LPS  days hr:min    10^6 ltr    10^6 ltr     Percent
  -------------------------------------------------------------------------------------------------
  WS02001211           JUNCTION      7.35   387.87     0  03:00       0.207        7.28       0.413
  WS02001212           JUNCTION      0.00   388.13     0  03:00           0        7.25       0.225
  WS02001213           JUNCTION      0.00   388.39     0  03:00           0        7.23       0.313
  WS02003069           JUNCTION      0.32   938.64     0  02:46     0.00902        15.2       0.193
  WS02003072           JUNCTION      0.00   938.60     0  02:47           0        15.1       0.240
  WS02003073           JUNCTION      1.82   940.41     0  02:48      0.0514        15.2       0.270
  WS02003060           JUNCTION     16.53   938.35     0  02:46       0.466        15.2       0.183
  WS02003066           JUNCTION      0.00   538.63     0  02:41           0        7.57       0.064
  WS02003059           JUNCTION      0.00   388.94     0  03:00           0        7.21       0.492
  WS02003067           JUNCTION      0.00   538.62     0  02:41           0        7.58       0.131
  WS02004401           JUNCTION      0.00   541.45     0  02:30           0        7.82       0.284
  WS02004402           JUNCTION      0.00   540.95     0  02:30           0         7.8       0.267
  WS02004403           JUNCTION      0.00   540.61     0  02:31           0        7.78       0.243
  WS02004404           JUNCTION      0.16   540.73     0  02:31     0.00457        7.76       0.182
  WS02004406           JUNCTION      0.00   540.59     0  02:32           0        7.73       0.444
  WS02004409           JUNCTION      0.00   540.41     0  02:31           0        7.69       0.232
  WS02004410           JUNCTION      0.00   539.45     0  02:33           0        7.67       0.261
  WS02004411           JUNCTION      0.00   538.88     0  02:34           0        7.65       0.267
  WS02004412           JUNCTION      0.00   538.64     0  02:40           0        7.63       0.286
  WS02004413           JUNCTION      0.00   538.67     0  02:40           0        7.61       0.419
  WS02004405           JUNCTION      0.04   540.72     0  02:31     0.00107        7.75       0.272
  WS02006109           JUNCTION      1.23   536.61     0  02:29      0.0347        7.91       0.264
  WS02006110           JUNCTION      0.00   536.60     0  02:29           0        7.89       0.251
  WS02006111           JUNCTION      0.00   557.54     0  02:30           0        7.86       0.057
  WS02006112           JUNCTION     11.42   548.70     0  02:28      0.0322        7.89       0.374
  WS02006113           JUNCTION      0.00   537.11     0  02:28           0        7.87       0.125
  WS02006115           JUNCTION      0.00   546.53     0  02:28           0        7.86       0.267
  WS02006116           JUNCTION      0.00   542.77     0  02:30           0        7.84       0.253
  WS02006230           JUNCTION     10.28   398.36     0  04:12        0.29        6.86       0.202
  WS02006231           JUNCTION      0.00   388.56     0  04:12           0        6.58       0.154
  WS02006232           JUNCTION      0.00   388.56     0  04:12           0        6.59       0.243
  WS02006234           JUNCTION      0.00   389.28     0  04:11           0         6.6       0.122
  WS02006235           JUNCTION      0.00   389.20     0  04:11           0        6.64       0.160
  WS02006238           JUNCTION      0.00   343.60     0  04:50           0        4.72       0.158
  WS02006240           JUNCTION      0.00   337.80     0  04:50           0        4.71       0.248
  WS02006242           JUNCTION      0.00   335.71     0  03:51           0        4.71       0.308
  WS02006243           JUNCTION      0.00   338.91     0  06:51           0         4.7      -0.007
  WS02006245           JUNCTION      0.00   343.35     0  06:51           0        4.71       0.235
  WS02006247           JUNCTION      0.00   348.17     0  06:50           0        4.72       0.160
  WS02006248           JUNCTION      0.00   352.37     0  06:50           0        4.72       0.077
  WS02006249           JUNCTION      0.00   434.24     0  02:40           0        5.26       0.220
  WS02006239           JUNCTION      0.00   341.93     0  04:50           0        4.71       0.208
  WS02006251           JUNCTION      0.08   434.48     0  02:40     0.00217         5.3       0.164
  WS02006252           JUNCTION      0.00   400.00     0  02:40           0        5.09       0.009
  WS02006253           JUNCTION      1.72    52.04     0  02:16     0.00416       0.213       1.765
  WS02006256           JUNCTION      0.00   600.00     0  02:50           0        5.54       0.051
  WS02004138           JUNCTION      0.00   380.00     0  02:40           0         7.1       0.063
  WS02004407           JUNCTION      0.00   540.56     0  02:31           0         7.7       0.102
  WS02006228           JUNCTION      0.00   535.38     0  02:29           0        7.89       0.186
  WS02006229           JUNCTION      0.00   535.30     0  02:28           0        7.91       0.164
  WS02006280           JUNCTION      0.00   261.71     0  02:17           0        1.06       0.006
  WS02006284           JUNCTION      0.10   261.70     0  02:16      0.0027        1.06       0.103
  WS02006287           JUNCTION      0.00   261.59     0  02:16           0        1.06       0.068
  WSF200               JUNCTION      0.00   538.66     0  02:41           0        7.56       0.066
  HS02004901           JUNCTION     14.12    14.12     0  02:09      0.0387      0.0388       4.739
  HS02004881           JUNCTION      5.74    50.69     0  02:16      0.0169       0.179       0.208
  HS02004876           JUNCTION      9.27    45.23     0  02:16      0.0324       0.163       0.328
  HS02004870           JUNCTION     10.18    36.13     0  02:16       0.032        0.13       0.082
  HS02004862           JUNCTION      8.45    26.57     0  02:17      0.0376      0.0985       0.171
  HS02004856           JUNCTION      7.56    18.17     0  02:16      0.0241      0.0623       2.363
  HS02004852           JUNCTION      0.00    11.06     0  02:17           0      0.0383       0.136
  HS02004848           JUNCTION     17.12    17.12     0  02:20      0.0765      0.0765       0.058
  HS02004842           JUNCTION      0.00     6.65     0  02:29           0      0.0512      34.058
  HS02004837           JUNCTION     22.77    28.31     0  02:16       0.235       0.273       0.299
  HS02004830           JUNCTION      0.15    28.44     0  02:17     0.00423       0.263       0.471
  HS02004824           JUNCTION     19.41    47.61     0  02:20         0.1       0.362       0.149
  HS02004817           JUNCTION      0.60    48.20     0  02:20      0.0169       0.378       4.606
  HS02004807           JUNCTION     19.13    65.70     0  02:18      0.0588       0.421       1.015
  HS02004802           JUNCTION      0.00    66.13     0  02:19           0       0.416       0.984
  HS02004799           JUNCTION     14.78   167.10     0  02:14      0.0476       0.565       0.406
  HS02004792           JUNCTION     65.67   152.54     0  02:13       0.206       0.517       0.079
  HS02004788           JUNCTION     21.74    88.73     0  02:14       0.113       0.313       0.125
  HS02004785           JUNCTION      0.15    67.26     0  02:14     0.00423       0.201       0.241
  HS02004777           JUNCTION      0.03    67.55     0  02:12    0.000846       0.202       2.635
  HS02004770           JUNCTION     55.59    68.62     0  02:11       0.165       0.203       1.552
  HS02004480           JUNCTION      0.00   197.18     0  02:15           0       0.661       0.114
  HS02004479           JUNCTION      0.00    30.69     0  02:16           0       0.109       0.674
  HS02004478           JUNCTION      0.00   261.57     0  02:16           0        1.06       0.057
  YS02001745           JUNCTION    103.27   151.36     0  04:37        1.07        1.14       0.121
  YS02001748           JUNCTION      0.04   356.99     0  04:42     0.00127        1.46       0.743
  YS02001751           JUNCTION      0.01   355.39     0  04:37     0.00031        1.39       1.002
  YS02001754           JUNCTION      0.26   160.00     0  02:54     0.00733        1.09       0.833
  YS02001762           JUNCTION      0.00   152.91     0  02:52           0        1.18       1.764
  YS02001765           JUNCTION      0.00   151.62     0  02:52           0        1.18       2.009
  YS02001767           JUNCTION      0.54   156.76     0  02:36      0.0151         1.2       2.875
  YS02001770           JUNCTION    131.47   166.02     0  02:33        1.23        1.33       2.089
  YS02001774           JUNCTION      0.00    50.05     0  06:10           0       0.215      12.910
  YS02001779           JUNCTION      0.01    50.29     0  06:10    0.000141      0.0995      10.344
  YS02001882           JUNCTION      0.00     4.88     0  02:07           0     0.00651      38.027
  YS02001884           JUNCTION      0.00    13.64     0  02:10           0      0.0257      24.915
  YS02001759           JUNCTION    128.10   281.17     0  02:52        1.15        2.29       0.992
  YS02001887           JUNCTION    167.24   167.68     0  02:45        1.36        1.37       0.545
  YS02001890           JUNCTION      0.00   167.70     0  02:45           0        1.34       0.609
  YS02001898           JUNCTION      0.00   166.95     0  02:44           0        1.33       0.182
  YS02001901           JUNCTION      0.00   166.97     0  02:44           0        1.33       0.437
  YS02001904           JUNCTION      0.00   166.16     0  02:43           0        1.33       0.406
  YS02001907           JUNCTION      0.00   303.13     0  03:03           0        2.86       0.791
  YS02001910           JUNCTION      0.00   140.90     0  03:03           0        1.55       0.682
  YS02001915           JUNCTION     92.05   139.27     0  03:01       0.908        1.55       0.315
  YS02001918           JUNCTION      0.00    47.41     0  03:03           0       0.645       0.200
  YS02001619           JUNCTION     89.65    89.65     0  02:59       0.897       0.897       0.985
  YS02001629           JUNCTION      0.00   152.92     0  03:54           0       0.855       2.696
  YS02001641           JUNCTION      0.00   201.12     0  02:56           0        1.79       1.182
  YS02001644           JUNCTION     98.19   297.14     0  02:56        1.02        2.78       0.943
  YS02001652           JUNCTION      0.00   209.91     0  02:47           0        1.05       1.514
  YS02001655           JUNCTION      0.15   346.41     0  04:10     0.00434        1.25       1.309
  YS02001920           JUNCTION      2.87    47.04     0  03:01      0.0809       0.647       0.347
  YS02001923           JUNCTION      0.04    44.17     0  03:01     0.00106       0.566       0.062
  YS02001926           JUNCTION      0.05    44.22     0  03:01     0.00147       0.568       0.431
  YS02001929           JUNCTION     44.19    44.19     0  03:01       0.567       0.567       0.060
  YS02001658           JUNCTION      0.00   353.60     0  04:13           0        1.42       0.746
  YS02001661           JUNCTION      0.00   196.53     0  04:41           0         1.2       0.283
  YS02001664           JUNCTION    118.97   118.97     0  02:45       0.998       0.998       0.011
  YS02001622           JUNCTION      0.00   107.99     0  02:39           0       0.918       2.712
  YS02001633           JUNCTION     99.86   207.19     0  02:56        1.05        1.85       1.751
  YS02001649           JUNCTION      0.00   440.48     0  02:50           0        3.72       0.986
  YS02001757           JUNCTION      0.00   759.57     0  02:56           0        6.94       1.341
  YS02001895           JUNCTION      0.00   167.22     0  02:44           0        1.33       0.298
  YS02001625           JUNCTION      0.00   153.82     0  03:54           0       0.919       4.353
  YS02163301           JUNCTION      0.00   107.84     0  02:56           0       0.819       2.968
  YS02163601           JUNCTION      0.11   204.51     0  02:56      0.0031        1.81       1.681
  YS02164001           JUNCTION      0.00   203.38     0  02:56           0        1.79       1.115
  YS02001647           JUNCTION      0.00   298.92     0  02:54           0        2.74       0.786
  YSB1154              JUNCTION     16.48    16.48     0  02:14      0.0577       0.059       2.509
  YSB6556              JUNCTION      0.00    16.52     0  02:15           0      0.0599       2.126
  YSB1174              JUNCTION     15.99    15.99     0  02:08       0.042      0.0429       3.083
  YSB1171              JUNCTION      0.00    30.61     0  02:14           0       0.108       6.196
  YS02006553           JUNCTION      0.00   304.25     0  03:02           0        2.85       0.512
  YS02006561           JUNCTION      0.00   469.75     0  02:58           0        4.04       0.009
  YS02006556           JUNCTION      0.00   304.60     0  03:02           0        2.86       0.371
  YS02006558           JUNCTION    142.05   444.83     0  02:48        1.24        4.07       0.123
  YS02001783           JUNCTION      0.00   442.55     0  02:51           0        4.04       0.042
  YS02001784           JUNCTION      1.06   443.44     0  02:57      0.0299        4.07       0.068
  YS02001786           JUNCTION      0.06   443.45     0  02:58     0.00159        4.06       0.066
  YS02001788           JUNCTION      0.07   443.49     0  02:58       0.002        4.06       0.038
  YS02001790           JUNCTION      0.15   443.68     0  02:57     0.00437        4.07       0.048
  YS02001791           JUNCTION      0.00   443.58     0  02:58           0        4.06       0.024
  YS02001793           JUNCTION      0.00   445.52     0  02:56           0        4.06       0.010
  WS02004139           JUNCTION      0.32   380.32     0  02:42     0.00905         7.1       0.472
  WSC                  OUTFALL       0.00   940.40     0  02:48           0        15.1       0.000
  3                    OUTFALL       0.00   515.87     0  02:50           0        3.58       0.000
  4                    OUTFALL       0.00   151.05     0  02:42           0       0.522       0.000
  5                    OUTFALL       0.00     0.00     0  00:00           0           0       0.000 ltr
  JK-storage           STORAGE       0.00   446.75     0  02:56           0        4.21     -23.883
  CC-storage           STORAGE       0.00   759.62     0  02:59           0        6.82       0.548
  XR-storage           STORAGE     366.60   366.60     0  02:56        7.43        8.03      -0.001
  
  
  **********************
  Node Surcharge Summary
  **********************
  
  Surcharging occurs when water rises above the top of the highest conduit.
  ---------------------------------------------------------------------
                                               Max. Height   Min. Depth
                                   Hours       Above Crown    Below Rim
  Node                 Type      Surcharged         Meters       Meters
  ---------------------------------------------------------------------
  WS02006109           JUNCTION        2.32          0.151        1.669
  WS02006110           JUNCTION        0.40          0.012        1.838
  WS02006112           JUNCTION        0.64          0.056        1.624
  WS02006232           JUNCTION        2.67          0.118        1.362
  WS02006234           JUNCTION        0.43          0.040        1.200
  WS02006235           JUNCTION        1.59          0.087        1.203
  WS02006238           JUNCTION        2.06          0.105        1.325
  WS02006240           JUNCTION        0.37          0.036        1.354
  WS02006242           JUNCTION        1.38          0.081        0.739
  WS02006239           JUNCTION        0.66          0.056        1.234
  WS02006252           JUNCTION        2.77          0.193        0.907
  WS02006228           JUNCTION        2.15          0.179        2.021
  YS02001751           JUNCTION        0.01          0.428        0.772
  YS02001754           JUNCTION        2.94          0.600        0.550
  YS02001762           JUNCTION        5.35          0.705        0.445
  YS02001765           JUNCTION        5.32          0.729        0.371
  YS02001767           JUNCTION        5.27          0.764        0.266
  YS02001770           JUNCTION        5.21          0.842        0.078
  YS02001774           JUNCTION        5.34          0.973        0.077
  YS02001779           JUNCTION        1.65          0.680        0.000
  YS02001759           JUNCTION        5.38          0.635        0.575
  YS02001641           JUNCTION        5.33          0.457        0.643
  YS02001644           JUNCTION        5.33          0.496        0.424
  YS02001652           JUNCTION        4.17          0.642        0.488
  YS02001655           JUNCTION        0.02          0.884        0.316
  YS02001633           JUNCTION        5.30          0.361        0.699
  YS02001649           JUNCTION        5.36          0.573        0.477
  YS02001757           JUNCTION        5.46          0.696        0.514
  YS02001625           JUNCTION        4.99          0.190        0.590
  YS02163301           JUNCTION        5.27          0.308        0.722
  YS02163601           JUNCTION        5.36          0.473        0.607
  YS02164001           JUNCTION        5.33          0.438        0.662
  YS02001647           JUNCTION        4.74          0.361        0.539
  
  
  *********************
  Node Flooding Summary
  *********************
  
  Flooding refers to all water that overflows a node, whether it ponds or not.
  --------------------------------------------------------------------------
                                                             Total   Maximum
                                 Maximum   Time of Max       Flood    Ponded
                        Hours       Rate    Occurrence      Volume     Depth
  Node                 Flooded       LPS   days hr:min    10^6 ltr    Meters
  --------------------------------------------------------------------------
  YS02001779              0.01     21.28      0  04:24       0.000     0.000
  XR-storage              0.88    171.08      0  05:20       0.284     0.000
  
  
  **********************
  Storage Volume Summary
  **********************
  
  --------------------------------------------------------------------------------------------------
                         Average     Avg  Evap Exfil       Maximum     Max    Time of Max    Maximum
                          Volume    Pcnt  Pcnt  Pcnt        Volume    Pcnt     Occurrence    Outflow
  Storage Unit           1000 m3    Full  Loss  Loss       1000 m3    Full    days hr:min        LPS
  --------------------------------------------------------------------------------------------------
  JK-storage               0.009       3     0     0         0.151      52       0  00:00     600.00
  CC-storage               1.431       9     0     0         2.044      13       0  04:37     400.00
  XR-storage               0.717      77     0     0         0.926     100       0  04:24     380.00
  
  
  ***********************
  Outfall Loading Summary
  ***********************
  
  -----------------------------------------------------------
                         Flow       Avg       Max       Total
                         Freq      Flow      Flow      Volume
  Outfall Node           Pcnt       LPS       LPS    10^6 ltr
  -----------------------------------------------------------
  WSC                   99.99    621.05    940.40      15.120
  3                     88.28    208.04    515.87       3.580
  4                     47.46     51.96    151.05       0.522
  5                      0.00      0.00      0.00       0.000
  -----------------------------------------------------------
  System                58.93    881.05   1603.84      19.222
  
  
  ********************
  Link Flow Summary
  ********************
  
  -----------------------------------------------------------------------------
                                 Maximum  Time of Max   Maximum    Max/    Max/
                                  |Flow|   Occurrence   |Veloc|    Full    Full
  Link                 Type          LPS  days hr:min     m/sec    Flow   Depth
  -----------------------------------------------------------------------------
  WS02003066WSF200     CONDUIT    538.66     0  02:41      2.77    0.09    0.23
  WS02006287WS02006284 CONDUIT    261.61     0  02:16      1.76    0.12    0.24
  WS02006284WS02006280 CONDUIT    261.71     0  02:17      2.00    0.11    0.22
  WS02006280WS02006229 CONDUIT    261.71     0  02:17      3.22    0.06    0.16
  WS02006229WS02006228 CONDUIT    535.38     0  02:29      1.07    1.77    1.00
  WS02006256WS02006235 CONDUIT    166.25     0  00:01      2.58    1.76    1.00
  WS02006253WS02006251 CONDUIT     51.60     0  02:14      0.53    0.15    0.95
  WS02006252WS02006251 CONDUIT    400.64     0  04:47      3.19    1.47    1.00
  WS02006251WS02006249 CONDUIT    434.24     0  02:40      1.18    1.25    0.91
  WS02006249WS02006248 CONDUIT    352.37     0  06:50      1.17    1.93    0.87
  WS02006248WS02006247 CONDUIT    348.17     0  06:50      1.14    0.76    0.92
  WS02006247WS02006245 CONDUIT    343.35     0  06:51      1.12    2.72    0.96
  WS02006245WS02006243 CONDUIT    338.91     0  06:51      1.16    1.00    0.98
  WS02006243WS02006242 CONDUIT    335.71     0  03:51      1.03    0.72    1.00
  WS02006242WS02006240 CONDUIT    337.80     0  04:50      0.97    1.34    1.00
  WS02006240WS02006239 CONDUIT    341.93     0  04:50      1.01    1.08    1.00
  WS02006239WS02006238 CONDUIT    343.60     0  04:50      0.91    1.10    1.00
  WS02006238WS02006235 CONDUIT    343.40     0  04:50      1.25    0.77    1.00
  WS02006235WS02006234 CONDUIT    389.28     0  04:11      1.06    4.11    1.00
  WS02006234WS02006232 CONDUIT    388.56     0  04:12      1.13    0.79    1.00
  WS02006232WS02006231 CONDUIT    388.56     0  04:12      1.05    0.81    0.98
  WS02006231WS02006230 CONDUIT    388.08     0  04:12      1.37    5.89    0.94
  WS02006230WS02006229 CONDUIT    398.23     0  04:13      1.03    8.86    1.00
  WS02006228WS02006109 CONDUIT    535.38     0  02:29      1.07    2.34    1.00
  WS02006116WS02004401 CONDUIT    541.45     0  02:30      0.77    0.75    0.84
  WS02006115WS02006116 CONDUIT    542.77     0  02:30      0.86    0.70    0.76
  WS02006113WS02006111 CONDUIT    557.54     0  02:30      2.46    0.67    0.46
  WS02006112WS02006115 CONDUIT    546.53     0  02:28      0.75    0.32    0.87
  WS02006111WS02006112 CONDUIT    541.50     0  02:28      1.51    0.26    0.67
  WS02006110WS02006113 CONDUIT    537.11     0  02:28      1.27    0.49    0.78
  WS02006109WS02006110 CONDUIT    536.60     0  02:29      1.07    1.03    1.00
  WS02004411WS02004412 CONDUIT    538.64     0  02:40      0.92    0.77    0.70
  WS02004401WS02004402 CONDUIT    540.95     0  02:30      0.77    0.65    0.87
  WS02004413WS02003067 CONDUIT    538.62     0  02:41      1.11    0.23    0.59
  WS02004412WS02004413 CONDUIT    538.67     0  02:40      0.82    0.36    0.78
  WS02004410WS02004411 CONDUIT    538.88     0  02:34      0.94    0.74    0.69
  WS02004409WS02004410 CONDUIT    539.45     0  02:33      0.96    0.70    0.68
  WS02004407WS02004409 CONDUIT    540.41     0  02:31      1.47    0.19    0.48
  WS02004406WS02004407 CONDUIT    540.56     0  02:31      1.04    0.24    0.63
  WS02004405WS02004406 CONDUIT    540.59     0  02:32      0.70    1.07    0.96
  WS02004404WS02004405 CONDUIT    540.68     0  02:31      0.84    5.30    0.96
  WS02004403WS02004404 CONDUIT    540.57     0  02:31      0.74    0.39    0.93
  WS02004402WS02004403 CONDUIT    540.61     0  02:31      0.76    0.78    0.89
  WS02004139WS02001211 CONDUIT    380.53     0  03:00      0.81    0.48    0.60
  WS02004138WS02004139 CONDUIT    380.00     0  02:42      3.33    0.08    0.44
  WS02003067WS02003066 CONDUIT    538.63     0  02:41      1.21    0.17    0.42
  WS02001213WS02003059 CONDUIT    388.94     0  03:00      0.80    0.64    0.77
  WS02001212WS02001213 CONDUIT    388.39     0  03:00      1.30    0.60    0.47
  WS02001211WS02001212 CONDUIT    388.13     0  03:00      0.76    0.30    0.65
  WS02003072WS02003073 CONDUIT    938.59     0  02:48      1.73    2.03    0.49
  WS02003069WS02003072 CONDUIT    938.60     0  02:47      1.62    0.45    0.51
  WS02003060WS02003069 CONDUIT    938.32     0  02:46      1.87    0.37    0.46
  WS02003059WS02003060 CONDUIT    389.55     0  03:00      0.92    0.25    0.66
  HS02004901HS02004770 CONDUIT     13.25     0  02:12      0.05    0.05    0.35
  HS02004876HS02004881 CONDUIT     45.38     0  02:16      0.68    0.48    0.10
  HS02004870HS02004876 CONDUIT     36.11     0  02:17      0.47    0.02    0.11
  HS02004842HS02004848 CONDUIT      6.65     0  02:29      0.03    0.00    0.28
  HS02004837HS02004842 CONDUIT      6.88     0  02:30      0.41    0.00    0.30
  HS02004830HS02004837 CONDUIT     28.29     0  02:17      0.48    0.03    0.08
  HS02004824HS02004830 CONDUIT     28.44     0  02:17      0.51    0.04    0.08
  HS02004817HS02004824 CONDUIT     47.60     0  02:20      0.17    0.02    0.42
  HS02004770HS02004777 CONDUIT     67.52     0  02:12      0.27    0.12    0.36
  HS02004799HS02004480 CONDUIT    166.87     0  02:14      0.67    0.21    0.35
  HS02004792HS02004799 CONDUIT    152.46     0  02:14      0.77    0.09    0.28
  HS02004788HS02004792 CONDUIT     88.66     0  02:15      0.91    0.06    0.14
  HS02004785HS02004788 CONDUIT     67.18     0  02:14      0.58    0.51    0.17
  HS02004777HS02004785 CONDUIT     67.11     0  02:14      0.32    0.08    0.30
  HS02004480HS02004478 CONDUIT    197.13     0  02:15      1.06    0.83    0.26
  HS02004479HS02004480 CONDUIT     30.93     0  02:16      0.15    0.03    0.34
  HS02004862HS02004870 CONDUIT     26.53     0  02:18      0.52    0.03    0.07
  HS02004848HS02004852 CONDUIT     11.06     0  02:17      0.35    0.01    0.05
  HS02004856HS02004862 CONDUIT     18.14     0  02:17      0.38    0.02    0.07
  HS02004852HS02004856 CONDUIT     11.02     0  02:18      0.16    0.01    0.10
  HS02004802HS02004478 CONDUIT     66.64     0  02:20      0.34    0.06    0.29
  HS02004478WS02006287 CONDUIT    261.59     0  02:16      1.45    0.07    0.20
  HS02004817HS02004807 CONDUIT     48.93     0  02:22      0.13    0.03    0.55
  HS02004807HS02004802 CONDUIT     66.13     0  02:19      0.29    0.13    0.33
  YS02001759YS02001757 CONDUIT    281.15     0  02:52      0.36    0.20    1.00
  YS02001762YS02001759 CONDUIT    153.27     0  02:52      0.20    0.18    1.00
  YS02001765YS02001762 CONDUIT    152.91     0  02:52      0.23    0.14    1.00
  YS02001770YS02001767 CONDUIT    156.22     0  02:36      0.30    0.62    1.00
  YS02001774YS02001770 CONDUIT     50.05     0  06:10      0.14    0.03    1.00
  YS02001779YS02001774 CONDUIT     50.28     0  06:10      0.07    0.03    1.00
  YS02001649YS02001757 CONDUIT    442.60     0  02:50      0.56    0.27    1.00
  YS02001767YS02001765 CONDUIT    151.62     0  02:52      0.26    0.19    1.00
  YS02006561YS02001783 CONDUIT    442.55     0  02:51      1.94    0.23    0.46
  YS02001783YS02001784 CONDUIT    442.38     0  02:57      1.38    0.61    0.61
  YS02001784YS02001785 CONDUIT    443.39     0  02:58      1.48    1.03    0.58
  YS02001788YS02001790 CONDUIT    443.52     0  02:57      2.04    0.33    0.45
  YS02001790YS02001791 CONDUIT    443.58     0  02:58      2.38    0.48    0.40
  YS02001791YS02001793 CONDUIT    445.52     0  02:56      4.88    0.19    0.26
  YS02001910YS02001907 CONDUIT    141.78     0  03:03      0.49    0.08    0.83
  YS02001786YS02001788 CONDUIT    443.41     0  02:58      1.93    0.85    0.47
  YS02001915YS02001910 CONDUIT    140.90     0  03:03      0.45    0.07    0.62
  YS02001918YS02001915 CONDUIT     49.37     0  03:07      0.44    0.03    0.34
  YS02001923YS02001920 CONDUIT     44.17     0  03:01      0.51    0.02    0.17
  YS02001926YS02001923 CONDUIT     44.13     0  03:01      0.56    0.06    0.16
  YS02001929YS02001926 CONDUIT     44.17     0  03:01      0.60    0.02    0.15
  YS02001920YS02001918 CONDUIT     47.41     0  03:03      0.52    0.05    0.20
  YS02001629YS02163301 CONDUIT    107.84     0  02:56      0.14    0.13    1.00
  YS02001619YS02001622 CONDUIT    107.99     0  02:39      0.70    0.16    0.88
  YS02001622YS02001625 CONDUIT    153.82     0  03:54      0.29    0.08    0.94
  YS02001625YS02001629 CONDUIT    152.92     0  03:54      0.28    0.07    0.95
  YS02163301YS02001633 CONDUIT    107.68     0  02:56      0.14    0.10    1.00
  YS02163601YS02164001 CONDUIT    203.38     0  02:56      0.26    0.18    1.00
  YS02164001YS02001641 CONDUIT    201.12     0  02:56      0.26    0.27    1.00
  YS02001641YS02001644 CONDUIT    200.64     0  03:05      0.26    0.65    1.00
  YS02001647YS02001649 CONDUIT    324.92     0  02:49      0.42    0.17    1.00
  YS02006553YS02006556 CONDUIT    304.60     0  03:02      0.41    0.26    0.91
  YS02006556YS02006558 CONDUIT    306.36     0  03:02      0.40    0.24    0.93
  YSB6556YSB1171       CONDUIT     16.81     0  02:18      0.07    0.02    0.61
  YS02001907YS02006553 CONDUIT    304.25     0  03:02      0.34    0.36    1.00
  YS02006558YS02006561 CONDUIT    469.75     0  02:58      2.67    1.04    0.60
  YS02001633YS02163601 CONDUIT    204.40     0  02:56      0.26    0.21    1.00
  YS02001644YS02001647 CONDUIT    298.92     0  02:54      0.38    0.18    1.00
  YS02001745YS02001748 CONDUIT    206.44     0  04:07      1.50    0.08    0.46
  YS02001748YS02001751 CONDUIT    342.14     0  04:37      1.16    0.17    0.81
  YS02001751YS02001754 CONDUIT    159.74     0  02:54      1.00    0.08    1.00
  YS02001754YS02001757 CONDUIT    170.50     0  04:04      0.33    0.07    1.00
  YS02001882YS02001884 CONDUIT      4.88     0  02:07      0.06    0.01    0.55
  YS02001884YS02001887 CONDUIT     13.64     0  02:10      0.06    0.02    0.65
  YS02001890YS02001895 CONDUIT    167.22     0  02:44      0.33    0.08    0.62
  YS02001895YS02001898 CONDUIT    166.95     0  02:44      0.49    0.29    0.48
  YS02001898YS02001901 CONDUIT    166.97     0  02:44      0.37    0.11    0.56
  YS02001901YS02001904 CONDUIT    166.16     0  02:43      0.34    0.26    0.61
  YS02001904YS02001907 CONDUIT    166.08     0  02:43      0.26    0.06    0.77
  YS02001887YS02001890 CONDUIT    167.70     0  02:45      0.29    0.29    0.70
  YS02001652YS02001649 CONDUIT    174.63     0  02:46      0.33    0.09    1.00
  YS02001655YS02001652 CONDUIT    209.91     0  02:47      1.07    0.10    1.00
  YS02001658YS02001655 CONDUIT    305.16     0  04:10      1.34    0.13    0.82
  YS02001661YS02001658 CONDUIT    264.58     0  04:14      1.56    0.10    0.47
  YS02001664YS02001661 CONDUIT    118.97     0  02:45      1.29    0.04    0.25
  YSB1154YSB6556       CONDUIT     16.52     0  02:15      0.19    0.03    0.50
  YSB1174YSB1171       CONDUIT     14.89     0  02:09      0.06    0.02    0.62
  YSB1171HS02004479    CONDUIT     30.69     0  02:16      0.54    0.02    0.48
  HS02004881HS02006253 CONDUIT     50.70     0  02:16      1.84    0.01    0.26
  YS02001793JiankangQianchi CONDUIT    446.75     0  02:56     14.71    0.04    0.56
  YS02001757CaochengTiaoxuchi CONDUIT    759.62     0  02:59      1.62    0.33    0.87
  WSF200WS02003060     CONDUIT    539.07     0  02:35      1.87    0.12    0.34
  1                    CONDUIT    940.40     0  02:48      3.27    0.33    0.39
  2                    CONDUIT    151.05     0  02:42      5.43    0.36    0.42
  3                    CONDUIT    515.87     0  02:50      9.84    0.82    0.70
  4                    CONDUIT      0.00     0  00:00      0.00    0.00    0.00
  CC-Pump-1            PUMP       200.00     0  02:40              1.00
  CC-Pump-2            PUMP       200.00     0  02:30              1.00
  JK-Pump-1            PUMP       300.00     0  02:40              1.00
  JK-Pump-2            PUMP       300.00     0  00:00              1.00
  XR-Pump-1            PUMP        95.00     0  00:00              1.00
  XR-Pump-2            PUMP        95.00     0  00:00              1.00
  XR-Pump-3            PUMP        95.00     0  00:30              1.00
  XR-Pump-4            PUMP        95.00     0  00:00              1.00
  
  
  ***************************
  Flow Classification Summary
  ***************************
  
  -------------------------------------------------------------------------------------
                      Adjusted    ---------- Fraction of Time in Flow Class ---------- 
                       /Actual         Up    Down  Sub   Sup   Up    Down  Norm  Inlet 
  Conduit               Length    Dry  Dry   Dry   Crit  Crit  Crit  Crit  Ltd   Ctrl  
  -------------------------------------------------------------------------------------
  WS02003066WSF200        1.00   0.05  0.01  0.00  0.00  0.94  0.00  0.00  0.67  0.00
  WS02006287WS02006284    1.00   0.04  0.01  0.00  0.65  0.30  0.00  0.00  0.76  0.00
  WS02006284WS02006280    1.00   0.04  0.00  0.00  0.00  0.00  0.00  0.96  0.00  0.00
  WS02006280WS02006229    1.00   0.04  0.00  0.00  0.00  0.00  0.00  0.96  0.00  0.00
  WS02006229WS02006228    1.00   0.00  0.00  0.00  0.99  0.00  0.00  0.01  0.00  0.00
  WS02006256WS02006235    1.00   0.00  0.00  0.00  1.00  0.00  0.00  0.00  0.00  0.00
  WS02006253WS02006251    1.00   0.03  0.01  0.00  0.96  0.00  0.00  0.00  0.00  0.00
  WS02006252WS02006251    1.00   0.08  0.00  0.00  0.00  0.00  0.92  0.00  0.00  0.00
  WS02006251WS02006249    1.00   0.00  0.00  0.00  1.00  0.00  0.00  0.00  0.28  0.00
  WS02006249WS02006248    1.00   0.00  0.02  0.00  0.91  0.00  0.07  0.00  0.00  0.00
  WS02006248WS02006247    1.00   0.02  0.00  0.00  0.97  0.00  0.00  0.00  0.18  0.00
  WS02006247WS02006245    1.00   0.02  0.00  0.00  0.97  0.00  0.00  0.01  0.00  0.00
  WS02006245WS02006243    1.00   0.01  0.00  0.00  0.94  0.00  0.00  0.05  0.03  0.00
  WS02006243WS02006242    1.00   0.01  0.00  0.00  0.99  0.00  0.00  0.00  0.26  0.00
  WS02006242WS02006240    1.00   0.00  0.00  0.00  1.00  0.00  0.00  0.00  0.00  0.00
  WS02006240WS02006239    1.00   0.00  0.00  0.00  0.96  0.00  0.00  0.04  0.01  0.00
  WS02006239WS02006238    1.00   0.00  0.00  0.00  1.00  0.00  0.00  0.00  0.00  0.00
  WS02006238WS02006235    1.00   0.00  0.00  0.00  1.00  0.00  0.00  0.00  0.00  0.00
  WS02006235WS02006234    1.00   0.00  0.00  0.00  0.96  0.00  0.04  0.00  0.00  0.00
  WS02006234WS02006232    1.00   0.00  0.00  0.00  1.00  0.00  0.00  0.00  0.03  0.00
  WS02006232WS02006231    1.00   0.00  0.00  0.00  0.99  0.00  0.00  0.00  0.00  0.00
  WS02006231WS02006230    1.00   0.00  0.00  0.00  0.76  0.00  0.24  0.00  0.00  0.00
  WS02006230WS02006229    1.00   0.00  0.00  0.00  0.99  0.00  0.00  0.01  0.00  0.00
  WS02006228WS02006109    1.00   0.00  0.00  0.00  1.00  0.00  0.00  0.00  0.00  0.00
  WS02006116WS02004401    1.00   0.03  0.00  0.00  0.97  0.00  0.00  0.00  0.00  0.00
  WS02006115WS02006116    1.00   0.03  0.00  0.00  0.97  0.00  0.00  0.01  0.00  0.00
  WS02006113WS02006111    1.00   0.02  0.00  0.00  0.00  0.98  0.00  0.00  0.11  0.00
  WS02006112WS02006115    1.00   0.02  0.00  0.00  0.97  0.00  0.00  0.00  0.00  0.00
  WS02006111WS02006112    1.00   0.02  0.00  0.00  0.98  0.00  0.00  0.00  0.98  0.00
  WS02006110WS02006113    1.00   0.01  0.01  0.00  0.98  0.00  0.00  0.00  0.00  0.00
  WS02006109WS02006110    1.00   0.00  0.01  0.00  0.98  0.00  0.01  0.00  0.00  0.00
  WS02004411WS02004412    1.00   0.04  0.00  0.00  0.96  0.00  0.00  0.00  0.00  0.00
  WS02004401WS02004402    1.00   0.03  0.00  0.00  0.97  0.00  0.00  0.00  0.00  0.00
  WS02004413WS02003067    1.00   0.04  0.01  0.00  0.00  0.00  0.95  0.00  0.00  0.00
  WS02004412WS02004413    1.00   0.04  0.00  0.00  0.96  0.00  0.00  0.00  0.03  0.00
  WS02004410WS02004411    1.00   0.04  0.00  0.00  0.96  0.00  0.00  0.00  0.03  0.00
  WS02004409WS02004410    1.00   0.04  0.00  0.00  0.96  0.00  0.00  0.00  0.04  0.00
  WS02004407WS02004409    1.00   0.04  0.00  0.00  0.96  0.00  0.00  0.00  0.89  0.00
  WS02004406WS02004407    1.00   0.00  0.04  0.00  0.96  0.00  0.00  0.00  0.00  0.00
  WS02004405WS02004406    1.00   0.00  0.00  0.00  1.00  0.00  0.00  0.00  0.00  0.00
  WS02004404WS02004405    1.00   0.00  0.00  0.00  1.00  0.00  0.00  0.00  0.00  0.00
  WS02004403WS02004404    1.00   0.00  0.03  0.00  0.97  0.00  0.00  0.00  0.01  0.00
  WS02004402WS02004403    1.00   0.03  0.00  0.00  0.97  0.00  0.00  0.00  0.00  0.00
  WS02004139WS02001211    1.00   0.00  0.00  0.00  1.00  0.00  0.00  0.00  0.00  0.00
  WS02004138WS02004139    1.00   0.00  0.00  0.00  0.99  0.01  0.00  0.00  1.00  0.00
  WS02003067WS02003066    1.00   0.05  0.00  0.00  0.94  0.00  0.00  0.00  0.00  0.00
  WS02001213WS02003059    1.00   0.00  0.00  0.00  0.99  0.00  0.00  0.00  0.00  0.00
  WS02001212WS02001213    1.00   0.00  0.00  0.00  0.87  0.00  0.13  0.00  0.00  0.00
  WS02001211WS02001212    1.00   0.00  0.00  0.00  1.00  0.00  0.00  0.00  0.00  0.00
  WS02003072WS02003073    1.00   0.00  0.00  0.00  0.00  0.00  0.00  1.00  0.00  0.00
  WS02003069WS02003072    1.00   0.00  0.00  0.00  0.99  0.01  0.00  0.00  0.27  0.00
  WS02003060WS02003069    1.00   0.00  0.00  0.00  0.98  0.02  0.00  0.00  0.13  0.00
  WS02003059WS02003060    1.00   0.00  0.00  0.00  1.00  0.00  0.00  0.00  0.01  0.00
  HS02004901HS02004770    1.00   0.04  0.00  0.00  0.96  0.00  0.00  0.00  0.02  0.00
  HS02004876HS02004881    1.00   0.02  0.00  0.00  0.98  0.00  0.00  0.00  0.00  0.00
  HS02004870HS02004876    1.00   0.00  0.00  0.00  0.99  0.00  0.00  0.00  0.95  0.00
  HS02004842HS02004848    1.00   0.00  0.04  0.00  0.96  0.00  0.00  0.00  0.67  0.00
  HS02004837HS02004842    1.00   0.00  0.00  0.00  0.99  0.01  0.00  0.00  0.11  0.00
  HS02004830HS02004837    1.00   0.00  0.00  0.00  1.00  0.00  0.00  0.00  0.99  0.00
  HS02004824HS02004830    1.00   0.00  0.00  0.00  1.00  0.00  0.00  0.00  0.00  0.00
  HS02004817HS02004824    1.00   0.00  0.00  0.00  1.00  0.00  0.00  0.00  1.00  0.00
  HS02004770HS02004777    1.00   0.00  0.04  0.00  0.96  0.00  0.00  0.00  0.07  0.00
  HS02004799HS02004480    1.00   0.00  0.02  0.00  0.94  0.00  0.03  0.00  0.00  0.00
  HS02004792HS02004799    1.00   0.00  0.00  0.00  0.99  0.01  0.00  0.00  0.98  0.00
  HS02004788HS02004792    1.00   0.00  0.00  0.00  0.99  0.01  0.00  0.00  0.98  0.00
  HS02004785HS02004788    1.00   0.00  0.00  0.00  1.00  0.00  0.00  0.00  0.00  0.00
  HS02004777HS02004785    1.00   0.00  0.00  0.00  1.00  0.00  0.00  0.00  0.20  0.00
  HS02004480HS02004478    1.00   0.05  0.00  0.00  0.70  0.00  0.00  0.25  0.00  0.00
  HS02004479HS02004480    1.00   0.03  0.00  0.00  0.97  0.00  0.00  0.00  0.15  0.00
  HS02004862HS02004870    1.00   0.00  0.00  0.00  1.00  0.00  0.00  0.00  0.06  0.00
  HS02004848HS02004852    1.00   0.04  0.00  0.00  0.96  0.00  0.00  0.00  0.71  0.00
  HS02004856HS02004862    1.00   0.00  0.07  0.00  0.93  0.00  0.00  0.00  0.75  0.00
  HS02004852HS02004856    1.00   0.04  0.01  0.00  0.95  0.00  0.00  0.00  0.83  0.00
  HS02004802HS02004478    1.00   0.04  0.00  0.00  0.95  0.00  0.00  0.00  0.01  0.00
  HS02004478WS02006287    1.00   0.05  0.00  0.00  0.83  0.11  0.00  0.00  0.74  0.00
  HS02004817HS02004807    1.00   0.00  0.04  0.00  0.96  0.00  0.00  0.00  0.00  0.00
  HS02004807HS02004802    1.00   0.04  0.00  0.00  0.95  0.00  0.00  0.00  0.01  0.00
  YS02001759YS02001757    1.00   0.00  0.00  0.00  1.00  0.00  0.00  0.00  0.17  0.00
  YS02001762YS02001759    1.00   0.00  0.00  0.00  1.00  0.00  0.00  0.00  0.04  0.00
  YS02001765YS02001762    1.00   0.00  0.00  0.00  1.00  0.00  0.00  0.00  0.21  0.00
  YS02001770YS02001767    1.00   0.00  0.00  0.00  1.00  0.00  0.00  0.00  0.00  0.00
  YS02001774YS02001770    1.00   0.00  0.05  0.00  0.95  0.00  0.00  0.00  0.06  0.00
  YS02001779YS02001774    1.00   0.00  0.00  0.00  1.00  0.00  0.00  0.00  0.26  0.00
  YS02001649YS02001757    1.00   0.00  0.00  0.00  1.00  0.00  0.00  0.00  0.19  0.00
  YS02001767YS02001765    1.00   0.00  0.00  0.00  1.00  0.00  0.00  0.00  0.01  0.00
  YS02006561YS02001783    1.00   0.07  0.00  0.00  0.00  0.93  0.00  0.00  0.62  0.00
  YS02001783YS02001784    1.00   0.00  0.07  0.00  0.93  0.00  0.00  0.00  0.00  0.00
  YS02001784YS02001785    1.00   0.00  0.00  0.00  1.00  0.00  0.00  0.00  0.25  0.00
  YS02001788YS02001790    1.00   0.00  0.00  0.00  0.07  0.93  0.00  0.00  0.70  0.00
  YS02001790YS02001791    1.00   0.00  0.00  0.00  0.02  0.98  0.00  0.00  0.62  0.00
  YS02001791YS02001793    1.00   0.00  0.00  0.00  0.00  1.00  0.00  0.00  0.00  0.00
  YS02001910YS02001907    1.00   0.00  0.00  0.00  0.97  0.00  0.00  0.02  0.13  0.00
  YS02001786YS02001788    1.00   0.00  0.00  0.00  0.07  0.93  0.00  0.00  0.00  0.00
  YS02001915YS02001910    1.00   0.00  0.00  0.00  0.99  0.01  0.00  0.00  0.23  0.00
  YS02001918YS02001915    1.00   0.00  0.01  0.00  0.98  0.01  0.00  0.00  0.70  0.00
  YS02001923YS02001920    1.00   0.00  0.00  0.00  1.00  0.00  0.00  0.00  1.00  0.00
  YS02001926YS02001923    1.00   0.00  0.03  0.00  0.00  0.00  0.97  0.00  0.00  0.00
  YS02001929YS02001926    1.00   0.00  0.04  0.00  0.96  0.00  0.00  0.00  0.87  0.00
  YS02001920YS02001918    1.00   0.00  0.01  0.00  0.99  0.00  0.00  0.00  0.00  0.00
  YS02001629YS02163301    1.00   0.06  0.00  0.00  0.94  0.00  0.00  0.00  0.00  0.00
  YS02001619YS02001622    1.00   0.04  0.00  0.00  0.96  0.00  0.00  0.00  0.00  0.00
  YS02001622YS02001625    1.00   0.04  0.00  0.00  0.96  0.00  0.00  0.00  0.12  0.00
  YS02001625YS02001629    1.00   0.04  0.02  0.00  0.92  0.00  0.01  0.00  0.00  0.00
  YS02163301YS02001633    1.00   0.00  0.06  0.00  0.94  0.00  0.00  0.00  0.00  0.00
  YS02163601YS02164001    1.00   0.00  0.03  0.00  0.96  0.00  0.00  0.00  0.00  0.00
  YS02164001YS02001641    1.00   0.01  0.03  0.00  0.96  0.00  0.00  0.00  0.07  0.00
  YS02001641YS02001644    1.00   0.00  0.01  0.00  0.99  0.00  0.00  0.00  0.00  0.00
  YS02001647YS02001649    1.00   0.00  0.06  0.00  0.93  0.00  0.00  0.00  0.01  0.00
  YS02006553YS02006556    1.00   0.01  0.00  0.00  0.99  0.00  0.00  0.00  0.03  0.00
  YS02006556YS02006558    1.00   0.00  0.00  0.00  1.00  0.00  0.00  0.00  0.00  0.00
  YSB6556YSB1171          1.00   0.03  0.01  0.00  0.96  0.00  0.00  0.00  0.00  0.00
  YS02001907YS02006553    1.00   0.00  0.02  0.00  0.98  0.00  0.00  0.00  0.00  0.00
  YS02006558YS02006561    1.00   0.07  0.00  0.00  0.00  0.93  0.00  0.00  0.62  0.00
  YS02001633YS02163601    1.00   0.00  0.01  0.00  0.99  0.00  0.00  0.00  0.19  0.00
  YS02001644YS02001647    1.00   0.00  0.07  0.00  0.93  0.00  0.00  0.00  0.00  0.00
  YS02001745YS02001748    1.00   0.00  0.00  0.00  0.88  0.01  0.00  0.11  0.17  0.00
  YS02001748YS02001751    1.00   0.00  0.00  0.00  0.98  0.02  0.00  0.00  0.23  0.00
  YS02001751YS02001754    1.00   0.00  0.00  0.00  0.93  0.00  0.00  0.07  0.01  0.00
  YS02001754YS02001757    1.00   0.00  0.00  0.00  0.99  0.01  0.00  0.00  0.26  0.00
  YS02001882YS02001884    1.00   0.06  0.00  0.00  0.94  0.00  0.00  0.00  0.00  0.00
  YS02001884YS02001887    1.00   0.03  0.01  0.00  0.96  0.00  0.00  0.00  0.00  0.00
  YS02001890YS02001895    1.00   0.00  0.06  0.00  0.94  0.00  0.00  0.00  0.00  0.00
  YS02001895YS02001898    1.00   0.06  0.00  0.00  0.93  0.00  0.01  0.00  0.00  0.00
  YS02001898YS02001901    1.00   0.06  0.00  0.00  0.94  0.00  0.00  0.00  0.02  0.00
  YS02001901YS02001904    1.00   0.06  0.00  0.00  0.94  0.00  0.00  0.00  0.00  0.00
  YS02001904YS02001907    1.00   0.00  0.06  0.00  0.94  0.00  0.00  0.00  0.00  0.00
  YS02001887YS02001890    1.00   0.00  0.00  0.00  0.97  0.00  0.02  0.00  0.00  0.00
  YS02001652YS02001649    1.00   0.00  0.00  0.00  1.00  0.00  0.00  0.00  0.25  0.00
  YS02001655YS02001652    1.00   0.00  0.00  0.00  0.93  0.00  0.00  0.07  0.02  0.00
  YS02001658YS02001655    1.00   0.00  0.05  0.00  0.92  0.03  0.00  0.00  0.09  0.00
  YS02001661YS02001658    1.00   0.05  0.00  0.00  0.88  0.07  0.00  0.00  0.17  0.00
  YS02001664YS02001661    1.00   0.04  0.00  0.00  0.71  0.24  0.00  0.00  0.86  0.00
  YSB1154YSB6556          1.00   0.04  0.00  0.00  0.96  0.00  0.00  0.00  0.02  0.00
  YSB1174YSB1171          1.00   0.03  0.01  0.00  0.96  0.00  0.00  0.00  0.00  0.00
  YSB1171HS02004479       1.00   0.03  0.00  0.00  0.97  0.00  0.00  0.00  0.13  0.00
  HS02004881HS02006253    1.00   0.03  0.00  0.00  0.84  0.01  0.00  0.12  0.62  0.00
  YS02001793JiankangQianchi    1.00   0.00  0.00  0.00  0.13  0.86  0.00  0.00  0.17  0.00
  YS02001757CaochengTiaoxuchi    1.00   0.00  0.08  0.00  0.92  0.00  0.00  0.00  0.00  0.00
  WSF200WS02003060        1.00   0.00  0.05  0.00  0.64  0.31  0.00  0.00  0.37  0.00
  1                       1.00   0.00  0.00  0.00  0.00  1.00  0.00  0.00  0.38  0.00
  2                       1.00   0.52  0.00  0.00  0.00  0.48  0.00  0.00  0.11  0.00
  3                       1.00   0.12  0.00  0.00  0.00  0.88  0.00  0.00  0.27  0.00
  4                       1.00   1.00  0.00  0.00  0.00  0.00  0.00  0.00  0.00  0.00
  
  
  *************************
  Conduit Surcharge Summary
  *************************
  
  ----------------------------------------------------------------------------
                                                           Hours        Hours 
                         --------- Hours Full --------   Above Full   Capacity
  Conduit                Both Ends  Upstream  Dnstream   Normal Flow   Limited
  ----------------------------------------------------------------------------
  WS02006229WS02006228        2.15      2.51      2.15      4.72         2.15
  WS02006256WS02006235        5.76      5.76      7.69      2.39         0.01
  WS02006252WS02006251        1.42      1.42      2.77      2.42         0.01
  WS02006251WS02006249        0.01      0.01      0.01      1.45         0.01
  WS02006249WS02006248        0.01      0.01      0.01      4.67         0.01
  WS02006247WS02006245        0.01      0.01      0.01      4.91         0.01
  WS02006245WS02006243        0.01      0.01      0.01      0.01         0.01
  WS02006243WS02006242        0.18      0.18      1.37      0.01         0.01
  WS02006242WS02006240        0.37      0.37      2.15      2.89         0.01
  WS02006240WS02006239        0.48      0.48      0.66      0.09         0.01
  WS02006239WS02006238        1.91      1.91      2.06      0.15         0.10
  WS02006238WS02006235        1.85      1.85      2.53      0.01         0.01
  WS02006235WS02006234        0.43      0.43      1.59      5.75         0.01
  WS02006234WS02006232        0.77      0.77      2.67      0.01         0.01
  WS02006232WS02006231        0.01      0.01      2.67      0.01         0.01
  WS02006231WS02006230        0.01      0.01      0.01      5.77         0.01
  WS02006230WS02006229        3.89      4.58      3.89      5.87         3.89
  WS02006228WS02006109        2.32      3.29      2.32      5.15         2.32
  WS02006112WS02006115        0.01      0.01      0.64      0.01         0.01
  WS02006111WS02006112        0.01      0.01      4.70      0.01         0.01
  WS02006110WS02006113        0.01      0.01      2.92      0.01         0.01
  WS02006109WS02006110        0.39      0.39      3.29      0.40         0.01
  WS02004405WS02004406        0.01      0.01      0.01      0.53         0.01
  WS02004404WS02004405        0.01      0.01      0.01      5.66         0.01
  WS02003072WS02003073        0.01      0.01      0.01      5.21         0.01
  YS02001759YS02001757        5.38      5.38      5.46      0.01         0.01
  YS02001762YS02001759        5.35      5.35      5.38      0.01         0.03
  YS02001765YS02001762        5.32      5.32      5.35      0.01         0.01
  YS02001770YS02001767        5.26      5.27      5.27      0.01         1.04
  YS02001774YS02001770        5.21      5.21      5.34      0.01         0.01
  YS02001779YS02001774        1.66      1.66      5.34      0.01         0.01
  YS02001649YS02001757        5.36      5.36      5.46      0.01         0.01
  YS02001767YS02001765        5.27      5.27      5.32      0.01         0.03
  YS02001784YS02001785        0.01      0.01      0.01      0.41         0.01
  YS02001629YS02163301        5.19      5.19      5.27      0.01         0.01
  YS02001622YS02001625        0.01      0.01      4.99      0.01         0.01
  YS02001625YS02001629        0.01      0.01      4.99      0.01         0.01
  YS02163301YS02001633        5.27      5.27      5.33      0.01         0.01
  YS02163601YS02164001        5.33      5.33      5.36      0.01         0.01
  YS02164001YS02001641        5.33      5.33      5.33      0.01         0.01
  YS02001641YS02001644        5.33      5.33      5.33      0.01         0.59
  YS02001647YS02001649        4.74      4.74      5.36      0.01         0.01
  YS02001907YS02006553        0.44      0.44      0.78      0.01         0.01
  YS02006558YS02006561        0.01      0.01      0.01      0.12         0.01
  YS02001633YS02163601        5.30      5.30      5.36      0.01         0.01
  YS02001644YS02001647        4.74      4.74      5.33      0.01         0.01
  YS02001748YS02001751        0.01      0.01      0.01      0.01         0.01
  YS02001751YS02001754        0.01      0.01      2.94      0.01         0.01
  YS02001754YS02001757        4.66      4.66      5.46      0.01         0.01
  YS02001652YS02001649        4.94      4.94      5.36      0.01         0.01
  YS02001655YS02001652        0.02      0.02      4.17      0.01         0.01
  YS02001658YS02001655        0.01      0.01      0.02      0.01         0.01
  YS02001793JiankangQianchi        0.01      0.01      0.38      0.01         0.01
  YS02001757CaochengTiaoxuchi        0.01      0.01      5.46      0.01         0.01
  
  
  ***************
  Pumping Summary
  ***************
  
  ---------------------------------------------------------------------------------------------------------
                                                  Min       Avg       Max     Total     Power    % Time Off
                        Percent   Number of      Flow      Flow      Flow    Volume     Usage    Pump Curve
  Pump                 Utilized   Start-Ups       LPS       LPS       LPS  10^6 ltr     Kw-hr    Low   High
  ---------------------------------------------------------------------------------------------------------
  CC-Pump-1               58.84           5      0.00    144.26    200.00     2.385      7.57    0.0   17.2
  CC-Pump-2               68.08           3      0.00    141.62    200.00     2.700      8.29    0.0   12.8
  JK-Pump-1               95.73           3      0.00    153.03    300.00     2.987     57.53    0.0    0.0
  JK-Pump-2               85.10           6      0.00    145.62    300.00     2.549     48.55    0.0    0.0
  XR-Pump-1               82.97           8      0.00     70.24     95.00     1.596     17.47    0.0    0.0
  XR-Pump-2               95.74           5      0.00     76.75     95.00     2.080     23.42    0.0    0.0
  XR-Pump-3               89.35           6      0.00     70.39     95.00     1.795     20.60    0.0    0.0
  XR-Pump-4               76.58           7      0.00     74.98     95.00     1.625     16.04    0.0    0.0
  

  Analysis begun on:  Tue Dec 21 14:11:11 2021
  Analysis ended on:  Tue Dec 21 14:11:15 2021
  Total elapsed time: 00:00:04