
  EPA STORM WATER MANAGEMENT MODEL - VERSION 5.1 (Build 5.3.0.dev0)
  --------------------------------------------------------------

  WARNING 04: minimum elevation drop used for Conduit WS02004404WS02004405
  WARNING 03: negative offset ignored for Link YS02001904YS02001907
  
  *********************************************************
  NOTE: The summary statistics displayed in this report are
  based on results found at every computational time step,  
  not just on results from each reporting time step.
  *********************************************************
  
  ****************
  Analysis Options
  ****************
  Flow Units ............... LPS
  Process Models:
    Rainfall/Runoff ........ YES
    RDII ................... NO
    Snowmelt ............... NO
    Groundwater ............ NO
    Flow Routing ........... YES
    Ponding Allowed ........ NO
    Water Quality .......... NO
  Infiltration Method ...... HORTON
  Flow Routing Method ...... DYNWAVE
  Surcharge Method ......... EXTRAN
  Starting Date ............ 08/28/2015 08:00:00
  Ending Date .............. 08/28/2015 15:50:00
  Antecedent Dry Days ...... 8.0
  Report Time Step ......... 00:01:00
  Wet Time Step ............ 00:01:00
  Dry Time Step ............ 00:01:00
  Routing Time Step ........ 5.00 sec
  Variable Time Step ....... YES
  Maximum Trials ........... 8
  Number of Threads ........ 4
  Head Tolerance ........... 0.001500 m
  
  
  **************************        Volume         Depth
  Runoff Quantity Continuity     hectare-m            mm
  **************************     ---------       -------
  Total Precipitation ......         2.592         5.674
  Evaporation Loss .........         0.000         0.000
  Infiltration Loss ........         0.650         1.423
  Surface Runoff ...........         1.068         2.339
  Final Storage ............         0.874         1.914
  Continuity Error (%) .....        -0.018
  
  
  **************************        Volume        Volume
  Flow Routing Continuity        hectare-m      10^6 ltr
  **************************     ---------     ---------
  Dry Weather Inflow .......         0.616         6.165
  Wet Weather Inflow .......         1.067        10.674
  Groundwater Inflow .......         0.000         0.000
  RDII Inflow ..............         0.000         0.000
  External Inflow ..........         0.102         1.024
  External Outflow .........         1.669        16.695
  Flooding Loss ............         0.033         0.334
  Evaporation Loss .........         0.000         0.000
  Exfiltration Loss ........         0.000         0.000
  Initial Stored Volume ....         0.076         0.761
  Final Stored Volume ......         0.295         2.953
  Continuity Error (%) .....        -7.295
  
  
  *************************
  Highest Continuity Errors
  *************************
  Node JK-storage (-39.81%)
  Node HS02004842 (29.33%)
  Node YS02001884 (23.61%)
  Node YS02001774 (7.35%)
  Node YSB1171 (7.30%)
  
  
  ***************************
  Time-Step Critical Elements
  ***************************
  Link WS02006252WS02006251 (60.49%)
  Link 3 (29.96%)
  Link WS02006238WS02006235 (3.21%)
  Link WS02006280WS02006229 (2.14%)
  
  
  ********************************
  Highest Flow Instability Indexes
  ********************************
  Link WS02006113WS02006111 (40)
  Link WS02006111WS02006112 (22)
  Link YS02163601YS02164001 (3)
  Link YS02164001YS02001641 (3)
  Link YS02001765YS02001762 (3)
  
  
  *************************
  Routing Time Step Summary
  *************************
  Minimum Time Step           :     0.50 sec
  Average Time Step           :     0.88 sec
  Maximum Time Step           :     5.00 sec
  Percent in Steady State     :    -0.00
  Average Iterations per Step :     2.24
  Percent Not Converging      :     2.99
  
  
  ***************************
  Subcatchment Runoff Summary
  ***************************
  
  ------------------------------------------------------------------------------------------------------------------------------
                            Total      Total      Total      Total     Imperv       Perv      Total       Total     Peak  Runoff
                           Precip      Runon       Evap      Infil     Runoff     Runoff     Runoff      Runoff   Runoff   Coeff
  Subcatchment                 mm         mm         mm         mm         mm         mm         mm    10^6 ltr      LPS
  ------------------------------------------------------------------------------------------------------------------------------
  sub0                       5.67       0.00       0.00       0.40       4.01       0.00       4.01        0.00     1.40   0.707
  sub1                       5.67       0.00       0.00       0.62       3.80       0.00       3.80        0.03     7.20   0.669
  sub2                       5.67       0.00       0.00       2.10       2.67       0.00       2.67        0.02     6.34   0.470
  sub3                       5.67       0.00       0.00       2.10       2.64       0.00       2.64        0.06    12.98   0.464
  sub4                       5.67       0.00       0.00       0.62       3.66       0.00       3.66        0.08    14.49   0.645
  sub5                       5.67       0.00       0.00       0.40       3.97       0.00       3.97        0.04    12.81   0.699
  sub7                       5.67       0.00       0.00       0.51       3.91       0.00       3.91        0.01     4.56   0.689
  sub8                       5.67       0.00       0.00       0.51       3.90       0.00       3.90        0.02     8.01   0.687
  sub9                       5.67       0.00       0.00       0.51       3.90       0.00       3.90        0.02     5.94   0.687
  sub10                      5.67       0.00       0.00       0.45       3.93       0.00       3.93        0.04    12.81   0.693
  sub11                      5.67       0.00       0.00       0.45       3.95       0.00       3.95        0.05    15.10   0.695
  sub12                      5.67       0.00       0.00       0.74       3.75       0.00       3.75        0.03    12.89   0.661
  sub14                      5.67       0.00       0.00       0.51       3.90       0.00       3.90        0.04    11.60   0.687
  sub15                      5.67       0.00       0.00       1.70       2.99       0.00       2.99        0.05    15.72   0.528
  sub16                      5.67       0.00       0.00       1.87       2.88       0.00       2.88        0.03    11.30   0.508
  sub17                      5.67       0.00       0.00       1.82       2.92       0.00       2.92        0.03     9.11   0.515
  sub22                      5.67       0.00       0.00       2.44       2.45       0.00       2.45        0.15    51.67   0.431
  sub23                      5.67       0.00       0.00       2.10       2.71       0.00       2.71        0.13    44.04   0.477
  sub60                      5.67       0.00       0.00       0.68       2.60       0.00       2.60        0.79    71.62   0.458
  sub61                      5.67       0.00       0.00       0.96       2.79       0.00       2.79        0.86    90.46   0.491
  sub62                      5.67       0.00       0.00       0.45       2.99       0.00       2.99        0.92    92.26   0.526
  sub63                      5.67       0.00       0.00       1.65       2.49       0.00       2.49        0.75    84.67   0.438
  sub64                      5.67       0.00       0.00       0.85       2.48       0.00       2.48        0.75    68.00   0.437
  sub65                      5.67       0.00       0.00       0.74       2.51       0.00       2.51        0.77    68.98   0.443
  sub66                      5.67       0.00       0.00       1.65       2.17       0.00       2.17        0.66    62.44   0.382
  sub67                      5.67       0.00       0.00       0.45       3.30       0.00       3.30        1.02   119.23   0.581
  sub68                      5.67       0.00       0.00       0.79       2.97       0.00       2.97        0.91   100.20   0.523
  sub69                      5.67       0.00       0.00       0.85       3.22       0.00       3.22        0.75   100.31   0.567
  sub70                      5.67       3.28       0.00       3.05       3.92       0.00       3.92        0.90    79.28   0.438
  sub71                      5.67       0.00       0.00       0.45       2.85       0.00       2.85        0.67    64.24   0.503
  sub72                      5.67       0.00       0.00       0.40       2.00       0.00       2.00        0.41    30.10   0.352
  sub73                      5.67       3.81       0.00       3.23       3.97       0.00       3.97        0.93    67.93   0.418
  sub74                      5.67       0.00       0.00       4.26       0.97       0.00       0.97        0.39    56.14   0.171
  
  
  ******************
  Node Depth Summary
  ******************
  
  ---------------------------------------------------------------------------------
                                 Average  Maximum  Maximum  Time of Max    Reported
                                   Depth    Depth      HGL   Occurrence   Max Depth
  Node                 Type       Meters   Meters   Meters  days hr:min      Meters
  ---------------------------------------------------------------------------------
  WS02001211           JUNCTION     0.64     0.77     5.60     0  03:11        0.77
  WS02001212           JUNCTION     0.37     0.48     5.54     0  03:11        0.48
  WS02001213           JUNCTION     0.61     0.73     5.49     0  03:11        0.73
  WS02003069           JUNCTION     0.43     0.55     5.13     0  03:13        0.55
  WS02003072           JUNCTION     0.50     0.61     4.98     0  03:13        0.61
  WS02003073           JUNCTION     0.30     0.37     4.44     0  03:14        0.37
  WS02003060           JUNCTION     0.38     0.49     5.42     0  03:12        0.48
  WS02003066           JUNCTION     0.23     0.29     5.84     0  02:38        0.29
  WS02003059           JUNCTION     0.67     0.78     5.47     0  03:12        0.78
  WS02003067           JUNCTION     0.57     0.69     6.01     0  02:37        0.69
  WS02004401           JUNCTION     0.67     0.83     6.83     0  02:33        0.83
  WS02004402           JUNCTION     0.70     0.86     6.82     0  02:33        0.86
  WS02004403           JUNCTION     0.72     0.87     6.80     0  02:33        0.87
  WS02004404           JUNCTION     0.80     0.95     6.80     0  02:33        0.95
  WS02004406           JUNCTION     0.81     0.94     6.77     0  02:33        0.94
  WS02004409           JUNCTION     0.49     0.64     6.41     0  02:37        0.64
  WS02004410           JUNCTION     0.51     0.66     6.38     0  02:37        0.66
  WS02004411           JUNCTION     0.53     0.67     6.35     0  02:38        0.67
  WS02004412           JUNCTION     0.54     0.68     6.32     0  02:38        0.68
  WS02004413           JUNCTION     0.70     0.84     6.31     0  02:38        0.84
  WS02004405           JUNCTION     0.79     0.94     6.79     0  02:34        0.94
  WS02006109           JUNCTION     0.75     0.95     7.57     0  02:29        0.95
  WS02006110           JUNCTION     0.75     0.91     7.49     0  02:29        0.91
  WS02006111           JUNCTION     0.22     0.28     6.99     0  02:30        0.28
  WS02006112           JUNCTION     0.84     1.02     6.90     0  02:33        1.02
  WS02006113           JUNCTION     0.34     0.44     7.34     0  02:29        0.44
  WS02006115           JUNCTION     0.56     0.73     6.87     0  02:34        0.73
  WS02006116           JUNCTION     0.64     0.81     6.85     0  02:33        0.81
  WS02006230           JUNCTION     0.72     0.99     7.73     0  02:29        0.98
  WS02006231           JUNCTION     0.48     0.66     7.78     0  02:29        0.66
  WS02006232           JUNCTION     0.62     0.78     7.82     0  02:28        0.78
  WS02006234           JUNCTION     0.54     0.73     7.89     0  03:00        0.73
  WS02006235           JUNCTION     0.57     0.77     7.94     0  03:00        0.77
  WS02006238           JUNCTION     0.60     0.80     7.95     0  03:00        0.80
  WS02006240           JUNCTION     0.50     0.73     8.02     0  03:00        0.73
  WS02006242           JUNCTION     0.56     0.80     8.06     0  03:00        0.80
  WS02006243           JUNCTION     0.44     0.69     8.11     0  03:00        0.69
  WS02006245           JUNCTION     0.42     0.66     8.14     0  03:00        0.66
  WS02006247           JUNCTION     0.44     0.67     8.17     0  03:00        0.67
  WS02006248           JUNCTION     0.39     0.60     8.19     0  03:00        0.60
  WS02006249           JUNCTION     0.42     0.61     8.21     0  03:00        0.61
  WS02006239           JUNCTION     0.56     0.77     7.98     0  03:00        0.77
  WS02006251           JUNCTION     0.41     0.64     8.31     0  02:53        0.64
  WS02006252           JUNCTION     0.37     0.58     8.83     0  06:40        0.58
  WS02006253           JUNCTION     0.44     0.67     8.31     0  02:52        0.67
  WS02006256           JUNCTION     1.02     1.21     8.14     0  03:00        1.21
  WS02004138           JUNCTION     0.14     0.19     7.44     0  02:00        0.19
  WS02004407           JUNCTION     0.22     0.29     6.60     0  02:34        0.29
  WS02006228           JUNCTION     0.75     0.98     7.63     0  02:29        0.98
  WS02006229           JUNCTION     0.72     0.98     7.67     0  02:29        0.98
  WS02006280           JUNCTION     0.05     0.14     8.41     0  02:18        0.14
  WS02006284           JUNCTION     0.35     0.48     8.88     0  02:18        0.48
  WS02006287           JUNCTION     0.08     0.21     9.16     0  02:18        0.21
  WSF200               JUNCTION     0.22     0.30     5.53     0  02:39        0.30
  HS02004901           JUNCTION     0.11     0.23    10.05     0  02:15        0.23
  HS02004881           JUNCTION     0.01     0.02     9.05     0  02:17        0.02
  HS02004876           JUNCTION     0.04     0.10     9.13     0  02:16        0.10
  HS02004870           JUNCTION     0.01     0.04     9.33     0  02:18        0.04
  HS02004862           JUNCTION     0.01     0.05     9.43     0  02:19        0.05
  HS02004856           JUNCTION     0.07     0.10     9.53     0  02:18        0.10
  HS02004852           JUNCTION     0.01     0.03     9.54     0  02:19        0.03
  HS02004848           JUNCTION     0.01     0.03     9.63     0  02:17        0.03
  HS02004842           JUNCTION     0.33     0.36     9.63     0  02:17        0.36
  HS02004837           JUNCTION     0.03     0.05     9.63     0  02:17        0.05
  HS02004830           JUNCTION     0.04     0.06     9.53     0  02:18        0.06
  HS02004824           JUNCTION     0.02     0.04     9.44     0  02:21        0.04
  HS02004817           JUNCTION     0.42     0.52     9.37     0  02:18        0.52
  HS02004807           JUNCTION     0.11     0.20     9.37     0  02:18        0.20
  HS02004802           JUNCTION     0.15     0.23     9.36     0  02:18        0.23
  HS02004799           JUNCTION     0.10     0.25     9.46     0  02:16        0.25
  HS02004792           JUNCTION     0.02     0.10     9.62     0  02:15        0.10
  HS02004788           JUNCTION     0.02     0.07     9.97     0  02:16        0.07
  HS02004785           JUNCTION     0.03     0.13    10.03     0  02:16        0.13
  HS02004777           JUNCTION     0.13     0.25    10.05     0  02:16        0.25
  HS02004770           JUNCTION     0.10     0.22    10.05     0  02:16        0.22
  HS02004480           JUNCTION     0.06     0.20     9.44     0  02:17        0.20
  HS02004479           JUNCTION     0.10     0.23     9.44     0  02:17        0.23
  HS02004478           JUNCTION     0.05     0.12     9.35     0  02:18        0.12
  YS02001745           JUNCTION     0.08     0.11     7.63     0  03:00        0.11
  YS02001748           JUNCTION     0.28     0.45     7.53     0  04:46        0.45
  YS02001751           JUNCTION     0.46     0.65     7.53     0  04:45        0.64
  YS02001754           JUNCTION     0.71     0.92     7.53     0  04:48        0.92
  YS02001762           JUNCTION     0.91     1.21     7.61     0  03:59        1.11
  YS02001765           JUNCTION     0.86     1.15     7.60     0  03:59        1.06
  YS02001767           JUNCTION     0.83     1.42     7.91     0  03:58        1.02
  YS02001770           JUNCTION     0.82     1.01     7.51     0  04:51        1.01
  YS02001774           JUNCTION     0.89     1.09     7.51     0  04:51        1.09
  YS02001779           JUNCTION     0.64     0.83     7.51     0  03:57        0.82
  YS02001882           JUNCTION     0.28     0.44     7.16     0  02:52        0.44
  YS02001884           JUNCTION     0.38     0.54     7.16     0  02:51        0.54
  YS02001759           JUNCTION     0.94     1.23     7.59     0  03:59        1.15
  YS02001887           JUNCTION     0.45     0.62     7.16     0  02:51        0.62
  YS02001890           JUNCTION     0.48     0.65     7.16     0  02:52        0.65
  YS02001898           JUNCTION     0.25     0.41     7.14     0  02:52        0.41
  YS02001901           JUNCTION     0.37     0.53     7.14     0  02:53        0.53
  YS02001904           JUNCTION     0.35     0.51     7.14     0  02:53        0.51
  YS02001907           JUNCTION     0.68     0.85     7.14     0  02:52        0.85
  YS02001910           JUNCTION     0.47     0.63     7.14     0  02:52        0.63
  YS02001915           JUNCTION     0.27     0.42     7.14     0  02:52        0.42
  YS02001918           JUNCTION     0.08     0.09     7.16     0  03:03        0.09
  YS02001619           JUNCTION     0.42     0.60     7.53     0  04:52        0.59
  YS02001629           JUNCTION     0.77     0.97     7.52     0  04:43        0.97
  YS02001641           JUNCTION     0.88     1.19     7.63     0  04:00        1.10
  YS02001644           JUNCTION     0.88     1.19     7.62     0  04:00        1.09
  YS02001652           JUNCTION     0.72     0.95     7.55     0  04:52        0.94
  YS02001655           JUNCTION     0.49     0.69     7.54     0  04:50        0.68
  YS02001920           JUNCTION     0.17     0.20     7.21     0  03:02        0.20
  YS02001923           JUNCTION     0.06     0.08     7.34     0  03:02        0.08
  YS02001926           JUNCTION     0.14     0.17     7.62     0  03:01        0.17
  YS02001929           JUNCTION     0.06     0.08     7.78     0  03:01        0.08
  YS02001658           JUNCTION     0.22     0.39     7.53     0  04:53        0.39
  YS02001661           JUNCTION     0.14     0.19     7.60     0  02:44        0.19
  YS02001664           JUNCTION     0.07     0.11     8.04     0  02:44        0.11
  YS02001622           JUNCTION     0.44     0.61     7.51     0  04:54        0.60
  YS02001633           JUNCTION     0.86     1.14     7.59     0  04:16        1.07
  YS02001649           JUNCTION     0.92     1.13     7.52     0  04:52        1.12
  YS02001757           JUNCTION     1.04     1.28     7.54     0  04:00        1.25
  YS02001895           JUNCTION     0.25     0.40     7.15     0  02:53        0.40
  YS02001625           JUNCTION     0.72     0.92     7.53     0  04:54        0.92
  YS02163301           JUNCTION     0.80     1.04     7.56     0  04:25        1.01
  YS02163601           JUNCTION     0.92     1.18     7.58     0  04:22        1.13
  YS02164001           JUNCTION     0.86     1.15     7.61     0  03:58        1.08
  YS02001647           JUNCTION     0.71     0.91     7.52     0  04:12        0.91
  YSB1154              JUNCTION     0.24     0.38     9.44     0  02:16        0.38
  YSB6556              JUNCTION     0.13     0.27     9.44     0  02:17        0.27
  YSB1174              JUNCTION     0.19     0.33     9.44     0  02:16        0.33
  YSB1171              JUNCTION     0.39     0.53     9.44     0  02:17        0.53
  YS02006553           JUNCTION     0.68     0.85     7.14     0  02:52        0.85
  YS02006561           JUNCTION     0.14     0.22     6.88     0  02:53        0.22
  YS02006556           JUNCTION     0.66     0.82     7.14     0  02:53        0.82
  YS02006558           JUNCTION     0.70     0.87     7.13     0  02:53        0.87
  YS02001783           JUNCTION     0.24     0.39     6.53     0  02:53        0.39
  YS02001784           JUNCTION     0.27     0.42     6.49     0  02:53        0.42
  YS02001786           JUNCTION     0.23     0.35     6.38     0  02:54        0.35
  YS02001788           JUNCTION     0.17     0.27     6.24     0  02:54        0.27
  YS02001790           JUNCTION     0.20     0.32     5.97     0  02:54        0.32
  YS02001791           JUNCTION     0.13     0.21     5.68     0  02:50        0.21
  YS02001793           JUNCTION     0.08     0.14     4.97     0  02:53        0.14
  WS02004139           JUNCTION     0.58     0.71     5.62     0  03:10        0.71
  WSC                  OUTFALL      0.30     0.37     1.04     0  03:14        0.37
  3                    OUTFALL      0.08     0.21     6.21     0  03:00        0.21
  4                    OUTFALL      0.02     0.11     7.11     0  03:00        0.11
  5                    OUTFALL      0.00     0.00     5.00     0  00:00        0.00
  JK-storage           STORAGE      0.19     3.00     3.80     0  00:10        3.00
  CC-storage           STORAGE      0.27     0.49     7.49     0  04:51        0.49
  XR-storage           STORAGE      6.32     7.72     5.72     0  04:24        7.72
  
  
  *******************
  Node Inflow Summary
  *******************
  
  -------------------------------------------------------------------------------------------------
                                  Maximum  Maximum                  Lateral       Total        Flow
                                  Lateral    Total  Time of Max      Inflow      Inflow     Balance
                                   Inflow   Inflow   Occurrence      Volume      Volume       Error
  Node                 Type           LPS      LPS  days hr:min    10^6 ltr    10^6 ltr     Percent
  -------------------------------------------------------------------------------------------------
  WS02001211           JUNCTION      7.35   381.22     0  05:00       0.207        6.51       0.467
  WS02001212           JUNCTION      0.00   376.60     0  05:01           0        6.48       0.259
  WS02001213           JUNCTION      0.00   374.65     0  05:01           0        6.46       0.301
  WS02003069           JUNCTION      0.32   848.59     0  03:12     0.00902        13.8       0.190
  WS02003072           JUNCTION      0.00   847.77     0  03:13           0        13.8       0.236
  WS02003073           JUNCTION      1.82   849.16     0  03:14      0.0514        13.8       0.257
  WS02003060           JUNCTION     16.53   848.61     0  03:12       0.466        13.9       0.185
  WS02003066           JUNCTION      0.00   505.13     0  02:38           0           7       0.065
  WS02003059           JUNCTION      0.00   372.65     0  05:01           0        6.44       0.542
  WS02003067           JUNCTION      0.00   505.10     0  02:38           0        7.01       0.137
  WS02004401           JUNCTION      0.00   513.54     0  02:31           0        7.26       0.326
  WS02004402           JUNCTION      0.00   511.82     0  02:33           0        7.24       0.304
  WS02004403           JUNCTION      0.00   511.85     0  02:33           0        7.22       0.274
  WS02004404           JUNCTION      0.16   511.11     0  02:33     0.00457         7.2       0.204
  WS02004406           JUNCTION      0.00   511.38     0  02:33           0        7.16       0.495
  WS02004409           JUNCTION      0.00   510.88     0  02:34           0        7.12       0.251
  WS02004410           JUNCTION      0.00   507.65     0  02:36           0         7.1       0.278
  WS02004411           JUNCTION      0.00   506.31     0  02:36           0        7.08       0.281
  WS02004412           JUNCTION      0.00   505.62     0  02:37           0        7.06       0.300
  WS02004413           JUNCTION      0.00   505.16     0  02:38           0        7.04       0.440
  WS02004405           JUNCTION      0.04   511.28     0  02:33     0.00107        7.19       0.304
  WS02006109           JUNCTION      1.23   517.79     0  02:29      0.0347        7.37       0.272
  WS02006110           JUNCTION      0.00   517.81     0  02:29           0        7.35       0.310
  WS02006111           JUNCTION      0.00   537.13     0  02:30           0        7.32       0.070
  WS02006112           JUNCTION      9.11   527.52     0  02:30      0.0251        7.34       0.430
  WS02006113           JUNCTION      0.00   518.17     0  02:29           0        7.33       0.161
  WS02006115           JUNCTION      0.00   524.07     0  02:30           0        7.31       0.316
  WS02006116           JUNCTION      0.00   517.39     0  02:31           0        7.28       0.297
  WS02006230           JUNCTION     10.28   395.53     0  05:07        0.29        6.51       0.226
  WS02006231           JUNCTION      0.00   385.45     0  05:03           0        6.23       0.227
  WS02006232           JUNCTION      0.00   385.65     0  05:02           0        6.25       0.281
  WS02006234           JUNCTION      0.00   386.81     0  05:02           0        6.26       0.168
  WS02006235           JUNCTION      0.00   387.01     0  05:02           0         6.3       0.193
  WS02006238           JUNCTION      0.00   314.05     0  07:50           0        4.41       0.206
  WS02006240           JUNCTION      0.00   328.87     0  07:10           0        4.41       0.361
  WS02006242           JUNCTION      0.00   335.91     0  07:11           0        4.42       0.427
  WS02006243           JUNCTION      0.00   340.42     0  07:11           0        4.41       0.041
  WS02006245           JUNCTION      0.00   343.22     0  07:41           0        4.42       0.326
  WS02006247           JUNCTION      0.00   349.15     0  07:41           0        4.43       0.239
  WS02006248           JUNCTION      0.00   354.60     0  07:41           0        4.44       0.160
  WS02006249           JUNCTION      0.00   420.37     0  02:51           0         4.8       0.326
  WS02006239           JUNCTION      0.00   319.68     0  07:10           0         4.4       0.284
  WS02006251           JUNCTION      0.08   420.87     0  02:50     0.00217        4.84       0.293
  WS02006252           JUNCTION      0.00   400.00     0  02:50           0        4.68       0.011
  WS02006253           JUNCTION      1.40    42.73     0  02:20     0.00325       0.171       5.030
  WS02006256           JUNCTION      0.00   600.00     0  03:00           0        4.47       0.062
  WS02004138           JUNCTION      0.00   380.00     0  02:00           0        6.33       0.059
  WS02004407           JUNCTION      0.00   511.05     0  02:34           0        7.13       0.118
  WS02006228           JUNCTION      0.00   516.55     0  02:29           0        7.35       0.202
  WS02006229           JUNCTION      0.00   516.50     0  02:29           0        7.36       0.179
  WS02006280           JUNCTION      0.00   205.38     0  02:18           0       0.872       0.008
  WS02006284           JUNCTION      0.10   205.37     0  02:18      0.0027       0.874       0.122
  WS02006287           JUNCTION      0.00   205.24     0  02:18           0       0.872       0.083
  WSF200               JUNCTION      0.00   505.13     0  02:38           0           7       0.067
  HS02004901           JUNCTION     11.30    11.30     0  02:10      0.0302      0.0303       6.151
  HS02004881           JUNCTION      4.56    38.85     0  02:17      0.0132       0.138       0.224
  HS02004876           JUNCTION      7.20    34.61     0  02:17      0.0252       0.126       0.420
  HS02004870           JUNCTION      8.01    27.57     0  02:17      0.0249         0.1       0.106
  HS02004862           JUNCTION      6.54    20.11     0  02:18      0.0305      0.0757       0.223
  HS02004856           JUNCTION      5.94    13.62     0  02:17      0.0187      0.0467       3.183
  HS02004852           JUNCTION      0.00     8.08     0  02:17           0       0.028       0.180
  HS02004848           JUNCTION     12.98    12.98     0  02:20      0.0593      0.0593       0.073
  HS02004842           JUNCTION      0.00     5.36     0  02:30           0      0.0443      41.507
  HS02004837           JUNCTION     19.16    23.70     0  02:17       0.222       0.254       0.320
  HS02004830           JUNCTION      0.15    23.84     0  02:17     0.00423       0.244       0.507
  HS02004824           JUNCTION     14.54    38.20     0  02:20      0.0777       0.321       0.168
  HS02004817           JUNCTION      0.60    38.80     0  02:21      0.0169       0.337       5.203
  HS02004807           JUNCTION     15.10    52.50     0  02:19      0.0458       0.366       1.168
  HS02004802           JUNCTION      0.00    52.78     0  02:20           0       0.362       1.134
  HS02004799           JUNCTION     11.60   130.23     0  02:15      0.0371       0.451       0.506
  HS02004792           JUNCTION     51.95   118.91     0  02:15       0.162       0.414       0.099
  HS02004788           JUNCTION     17.39    69.26     0  02:16      0.0986       0.253       0.155
  HS02004785           JUNCTION      0.15    52.31     0  02:15     0.00423       0.156       0.309
  HS02004777           JUNCTION      0.03    52.60     0  02:13    0.000846       0.157       3.415
  HS02004770           JUNCTION     44.04    53.95     0  02:12       0.129       0.157       2.005
  HS02004480           JUNCTION      0.00   153.48     0  02:17           0       0.525       0.138
  HS02004479           JUNCTION      0.00    23.78     0  02:18           0      0.0871       0.844
  HS02004478           JUNCTION      0.00   205.24     0  02:18           0       0.872       0.072
  YS02001745           JUNCTION     71.63    71.63     0  03:00       0.787       0.787       0.107
  YS02001748           JUNCTION      0.04   179.48     0  03:26     0.00127       0.892       0.017
  YS02001751           JUNCTION      0.01   230.64     0  03:24     0.00031       0.893       0.741
  YS02001754           JUNCTION      0.26   162.43     0  03:27     0.00733       0.846       1.656
  YS02001762           JUNCTION      0.00   128.61     0  03:29           0       0.885       2.004
  YS02001765           JUNCTION      0.00   118.08     0  03:14           0        0.88       2.021
  YS02001767           JUNCTION      0.54   152.91     0  03:56      0.0151       0.893       3.041
  YS02001770           JUNCTION     92.41   139.10     0  03:57       0.922        1.06       2.167
  YS02001774           JUNCTION      0.00    89.71     0  03:56           0        0.27       7.928
  YS02001779           JUNCTION      0.01    88.70     0  03:56    0.000141       0.113       7.930
  YS02001882           JUNCTION      0.00     4.01     0  02:10           0     0.00511      47.798
  YS02001884           JUNCTION      0.00    11.59     0  02:07           0      0.0204      30.914
  YS02001759           JUNCTION     90.50   216.08     0  03:01        0.86        1.71       1.151
  YS02001887           JUNCTION    119.68   119.68     0  02:41        1.03        1.04       0.688
  YS02001890           JUNCTION      0.00   119.00     0  02:44           0        1.02       0.772
  YS02001898           JUNCTION      0.00   118.43     0  02:47           0           1       0.214
  YS02001901           JUNCTION      0.00   118.34     0  02:46           0           1       0.547
  YS02001904           JUNCTION      0.00   117.75     0  02:48           0           1       0.509
  YS02001907           JUNCTION      0.00   213.59     0  02:54           0        2.15       1.034
  YS02001910           JUNCTION      0.00    97.52     0  03:00           0        1.15       0.882
  YS02001915           JUNCTION     64.26    96.85     0  03:01       0.674        1.16       0.389
  YS02001918           JUNCTION      0.00    32.96     0  03:02           0       0.485       0.227
  YS02001619           JUNCTION     62.44    62.44     0  02:56       0.664       0.667       0.389
  YS02001629           JUNCTION      0.00   138.46     0  03:45           0       0.674       1.569
  YS02001641           JUNCTION      0.00   183.83     0  03:27           0        1.36       1.122
  YS02001644           JUNCTION     68.04   221.59     0  03:00       0.755        2.09       0.889
  YS02001652           JUNCTION      0.00   140.09     0  03:31           0       0.839       1.598
  YS02001655           JUNCTION      0.15   224.06     0  03:26     0.00434       0.874       0.907
  YS02001920           JUNCTION      2.87    32.98     0  03:02      0.0809       0.487       0.414
  YS02001923           JUNCTION      0.04    30.12     0  03:01     0.00106       0.406       0.072
  YS02001926           JUNCTION      0.05    30.14     0  03:01     0.00147       0.407       0.518
  YS02001929           JUNCTION     30.10    30.10     0  03:01       0.406       0.406       0.070
  YS02001658           JUNCTION      0.00   167.55     0  03:51           0        0.87       0.052
  YS02001661           JUNCTION      0.00    84.67     0  02:44           0       0.752       0.091
  YS02001664           JUNCTION     84.67    84.67     0  02:44       0.753       0.753       0.022
  YS02001622           JUNCTION      0.00   100.13     0  03:45           0       0.671       1.201
  YS02001633           JUNCTION     69.18   150.91     0  02:57       0.777        1.39       1.688
  YS02001649           JUNCTION      0.00   339.39     0  03:19           0        2.86       1.073
  YS02001757           JUNCTION      0.00   534.90     0  03:19           0        5.23       1.638
  YS02001895           JUNCTION      0.00   118.52     0  02:44           0        1.01       0.367
  YS02001625           JUNCTION      0.00   169.58     0  03:48           0       0.695       3.340
  YS02163301           JUNCTION      0.00   112.30     0  03:28           0       0.638       2.722
  YS02163601           JUNCTION      0.11   155.74     0  03:20      0.0031        1.36       1.729
  YS02164001           JUNCTION      0.00   174.01     0  03:28           0        1.35       0.985
  YS02001647           JUNCTION      0.00   218.21     0  03:02           0        2.06       0.881
  YSB1154              JUNCTION     12.81    12.81     0  02:14      0.0449      0.0463       3.221
  YSB6556              JUNCTION      0.00    12.76     0  02:16           0      0.0473       2.706
  YSB1174              JUNCTION     12.89    12.89     0  02:09      0.0327      0.0338       3.948
  YSB1171              JUNCTION      0.00    23.75     0  02:15           0      0.0866       7.872
  YS02006553           JUNCTION      0.00   213.65     0  02:56           0        2.14       0.671
  YS02006561           JUNCTION      0.00   313.59     0  02:53           0        3.02       0.021
  YS02006556           JUNCTION      0.00   213.74     0  02:56           0        2.14       0.484
  YS02006558           JUNCTION    101.08   313.61     0  02:53       0.938        3.05       0.148
  YS02001783           JUNCTION      0.00   313.59     0  02:53           0        3.02       0.050
  YS02001784           JUNCTION      1.06   314.65     0  02:53      0.0299        3.05       0.082
  YS02001786           JUNCTION      0.06   314.69     0  02:53     0.00159        3.05       0.080
  YS02001788           JUNCTION      0.07   314.75     0  02:54       0.002        3.05       0.046
  YS02001790           JUNCTION      0.15   314.90     0  02:54     0.00437        3.05       0.057
  YS02001791           JUNCTION      0.00   314.89     0  02:54           0        3.05       0.028
  YS02001793           JUNCTION      0.00   316.17     0  02:53           0        3.05       0.011
  WS02004139           JUNCTION      0.32   379.63     0  02:00     0.00905        6.33       0.504
  WSC                  OUTFALL       0.00   848.34     0  03:14           0        13.8       0.000
  3                    OUTFALL       0.00   510.86     0  03:00           0        2.55       0.000
  4                    OUTFALL       0.00   128.26     0  03:00           0        0.34       0.000
  5                    OUTFALL       0.00     0.00     0  00:00           0           0       0.000 ltr
  JK-storage           STORAGE       0.00   316.46     0  02:53           0         3.2     -28.477
  CC-storage           STORAGE       0.00   531.42     0  03:01           0        5.09      -0.704
  XR-storage           STORAGE     316.43   316.43     0  02:51        6.96        7.56      -0.003
  
  
  **********************
  Node Surcharge Summary
  **********************
  
  Surcharging occurs when water rises above the top of the highest conduit.
  ---------------------------------------------------------------------
                                               Max. Height   Min. Depth
                                   Hours       Above Crown    Below Rim
  Node                 Type      Surcharged         Meters       Meters
  ---------------------------------------------------------------------
  WS02006109           JUNCTION        1.42          0.130        1.690
  WS02006112           JUNCTION        0.19          0.020        1.660
  WS02006232           JUNCTION        1.72          0.083        1.397
  WS02006234           JUNCTION        0.23          0.012        1.228
  WS02006235           JUNCTION        0.97          0.063        1.227
  WS02006238           JUNCTION        1.29          0.081        1.349
  WS02006240           JUNCTION        0.24          0.017        1.373
  WS02006242           JUNCTION        0.88          0.066        0.754
  WS02006239           JUNCTION        0.33          0.035        1.255
  WS02006252           JUNCTION        1.93          0.185        0.915
  WS02006228           JUNCTION        1.36          0.154        2.046
  YS02001762           JUNCTION        2.28          0.210        0.940
  YS02001765           JUNCTION        1.19          0.154        0.946
  YS02001767           JUNCTION        0.57          0.421        0.609
  YS02001774           JUNCTION        1.67          0.086        0.964
  YS02001759           JUNCTION        3.53          0.227        0.983
  YS02001641           JUNCTION        1.41          0.190        0.910
  YS02001644           JUNCTION        1.53          0.185        0.735
  YS02001633           JUNCTION        0.81          0.117        0.943
  YS02001649           JUNCTION        2.77          0.127        0.923
  YS02001757           JUNCTION        4.71          0.282        0.928
  YS02163301           JUNCTION        0.05          0.043        0.987
  YS02163601           JUNCTION        2.51          0.184        0.896
  YS02164001           JUNCTION        1.07          0.151        0.949
  
  
  *********************
  Node Flooding Summary
  *********************
  
  Flooding refers to all water that overflows a node, whether it ponds or not.
  --------------------------------------------------------------------------
                                                             Total   Maximum
                                 Maximum   Time of Max       Flood    Ponded
                        Hours       Rate    Occurrence      Volume     Depth
  Node                 Flooded       LPS   days hr:min    10^6 ltr    Meters
  --------------------------------------------------------------------------
  XR-storage              1.19    171.66      0  04:24       0.334     0.000
  
  
  **********************
  Storage Volume Summary
  **********************
  
  --------------------------------------------------------------------------------------------------
                         Average     Avg  Evap Exfil       Maximum     Max    Time of Max    Maximum
                          Volume    Pcnt  Pcnt  Pcnt        Volume    Pcnt     Occurrence    Outflow
  Storage Unit           1000 m3    Full  Loss  Loss       1000 m3    Full    days hr:min        LPS
  --------------------------------------------------------------------------------------------------
  JK-storage               0.009       3     0     0         0.151      52       0  00:10     600.00
  CC-storage               0.765       5     0     0         1.355       9       0  04:51     400.00
  XR-storage               0.759      82     0     0         0.926     100       0  04:24     380.00
  
  
  ***********************
  Outfall Loading Summary
  ***********************
  
  -----------------------------------------------------------
                         Flow       Avg       Max       Total
                         Freq      Flow      Flow      Volume
  Outfall Node           Pcnt       LPS       LPS    10^6 ltr
  -----------------------------------------------------------
  WSC                  100.00    563.19    848.34      13.806
  3                     84.53    153.08    510.86       2.549
  4                     30.77     51.57    128.26       0.340
  5                      0.00      0.00      0.00       0.000
  -----------------------------------------------------------
  System                53.82    767.84   1284.55      16.695
  
  
  ********************
  Link Flow Summary
  ********************
  
  -----------------------------------------------------------------------------
                                 Maximum  Time of Max   Maximum    Max/    Max/
                                  |Flow|   Occurrence   |Veloc|    Full    Full
  Link                 Type          LPS  days hr:min     m/sec    Flow   Depth
  -----------------------------------------------------------------------------
  WS02003066WSF200     CONDUIT    505.13     0  02:38      2.72    0.09    0.22
  WS02006287WS02006284 CONDUIT    205.27     0  02:18      1.62    0.10    0.22
  WS02006284WS02006280 CONDUIT    205.38     0  02:18      1.86    0.09    0.20
  WS02006280WS02006229 CONDUIT    205.38     0  02:18      2.99    0.04    0.14
  WS02006229WS02006228 CONDUIT    516.55     0  02:29      1.03    1.71    1.00
  WS02006256WS02006235 CONDUIT    158.12     0  00:13      2.30    1.67    1.00
  WS02006253WS02006251 CONDUIT     44.53     0  02:24      0.49    0.13    0.92
  WS02006252WS02006251 CONDUIT    400.20     0  07:40      3.18    1.47    1.00
  WS02006251WS02006249 CONDUIT    420.37     0  02:51      1.17    1.21    0.89
  WS02006249WS02006248 CONDUIT    354.60     0  07:41      1.21    1.94    0.85
  WS02006248WS02006247 CONDUIT    349.15     0  07:41      1.18    0.76    0.90
  WS02006247WS02006245 CONDUIT    343.22     0  07:41      1.15    2.72    0.94
  WS02006245WS02006243 CONDUIT    340.42     0  07:11      1.20    1.01    0.95
  WS02006243WS02006242 CONDUIT    335.91     0  07:11      1.02    0.72    0.99
  WS02006242WS02006240 CONDUIT    328.87     0  07:10      0.94    1.31    1.00
  WS02006240WS02006239 CONDUIT    319.68     0  07:10      0.98    1.01    1.00
  WS02006239WS02006238 CONDUIT    314.05     0  07:50      0.91    1.00    1.00
  WS02006238WS02006235 CONDUIT    314.04     0  07:50      0.91    0.70    1.00
  WS02006235WS02006234 CONDUIT    386.81     0  05:02      1.04    4.08    1.00
  WS02006234WS02006232 CONDUIT    385.65     0  05:02      1.02    0.78    1.00
  WS02006232WS02006231 CONDUIT    385.45     0  05:03      1.05    0.81    0.96
  WS02006231WS02006230 CONDUIT    385.25     0  05:07      1.35    5.84    0.90
  WS02006230WS02006229 CONDUIT    395.57     0  05:08      1.03    8.80    1.00
  WS02006228WS02006109 CONDUIT    516.56     0  02:29      1.03    2.26    1.00
  WS02006116WS02004401 CONDUIT    513.54     0  02:31      0.76    0.71    0.82
  WS02006115WS02006116 CONDUIT    517.39     0  02:31      0.88    0.66    0.74
  WS02006113WS02006111 CONDUIT    537.13     0  02:30      2.43    0.64    0.45
  WS02006112WS02006115 CONDUIT    524.07     0  02:30      0.75    0.31    0.86
  WS02006111WS02006112 CONDUIT    522.11     0  02:30      1.46    0.25    0.67
  WS02006110WS02006113 CONDUIT    518.17     0  02:29      1.24    0.47    0.78
  WS02006109WS02006110 CONDUIT    517.81     0  02:29      1.03    1.00    1.00
  WS02004411WS02004412 CONDUIT    505.62     0  02:37      0.90    0.72    0.68
  WS02004401WS02004402 CONDUIT    511.82     0  02:33      0.77    0.61    0.84
  WS02004413WS02003067 CONDUIT    505.10     0  02:38      1.07    0.22    0.58
  WS02004412WS02004413 CONDUIT    505.16     0  02:38      0.79    0.34    0.76
  WS02004410WS02004411 CONDUIT    506.31     0  02:36      0.92    0.69    0.67
  WS02004409WS02004410 CONDUIT    507.65     0  02:36      0.96    0.66    0.65
  WS02004407WS02004409 CONDUIT    510.88     0  02:34      1.46    0.18    0.47
  WS02004406WS02004407 CONDUIT    511.05     0  02:34      1.01    0.23    0.61
  WS02004405WS02004406 CONDUIT    511.38     0  02:33      0.67    1.01    0.94
  WS02004404WS02004405 CONDUIT    511.24     0  02:33      0.85    5.01    0.94
  WS02004403WS02004404 CONDUIT    510.95     0  02:33      0.74    0.37    0.91
  WS02004402WS02004403 CONDUIT    511.85     0  02:33      0.75    0.74    0.86
  WS02004139WS02001211 CONDUIT    373.88     0  05:00      0.69    0.47    0.57
  WS02004138WS02004139 CONDUIT    379.31     0  02:00      2.95    0.08    0.42
  WS02003067WS02003066 CONDUIT    505.13     0  02:38      1.17    0.16    0.41
  WS02001213WS02003059 CONDUIT    372.65     0  05:01      0.67    0.61    0.74
  WS02001212WS02001213 CONDUIT    374.65     0  05:01      1.30    0.58    0.44
  WS02001211WS02001212 CONDUIT    376.60     0  05:01      0.76    0.29    0.62
  WS02003072WS02003073 CONDUIT    847.34     0  03:14      1.67    1.83    0.46
  WS02003069WS02003072 CONDUIT    847.77     0  03:13      1.57    0.41    0.48
  WS02003060WS02003069 CONDUIT    848.27     0  03:12      1.82    0.33    0.43
  WS02003059WS02003060 CONDUIT    369.67     0  05:02      0.92    0.24    0.63
  HS02004901HS02004770 CONDUIT     10.32     0  02:14      0.05    0.04    0.32
  HS02004876HS02004881 CONDUIT     34.69     0  02:18      0.56    0.37    0.09
  HS02004870HS02004876 CONDUIT     27.55     0  02:18      0.39    0.02    0.10
  HS02004842HS02004848 CONDUIT      5.36     0  02:30      0.03    0.00    0.27
  HS02004837HS02004842 CONDUIT      5.55     0  02:30      0.42    0.00    0.29
  HS02004830HS02004837 CONDUIT     23.69     0  02:17      0.44    0.02    0.08
  HS02004824HS02004830 CONDUIT     23.84     0  02:18      0.48    0.03    0.07
  HS02004817HS02004824 CONDUIT     38.20     0  02:21      0.17    0.02    0.40
  HS02004770HS02004777 CONDUIT     52.57     0  02:13      0.23    0.10    0.33
  HS02004799HS02004480 CONDUIT    130.04     0  02:16      0.59    0.16    0.31
  HS02004792HS02004799 CONDUIT    118.85     0  02:15      0.68    0.07    0.25
  HS02004788HS02004792 CONDUIT     69.19     0  02:17      0.83    0.05    0.12
  HS02004785HS02004788 CONDUIT     52.20     0  02:16      0.51    0.39    0.15
  HS02004777HS02004785 CONDUIT     52.16     0  02:15      0.27    0.06    0.27
  HS02004480HS02004478 CONDUIT    153.45     0  02:17      0.96    0.65    0.23
  HS02004479HS02004480 CONDUIT     24.00     0  02:19      0.15    0.02    0.31
  HS02004862HS02004870 CONDUIT     20.07     0  02:19      0.47    0.02    0.06
  HS02004848HS02004852 CONDUIT      8.08     0  02:17      0.31    0.01    0.04
  HS02004856HS02004862 CONDUIT     13.59     0  02:18      0.34    0.01    0.06
  HS02004852HS02004856 CONDUIT      8.04     0  02:19      0.12    0.01    0.09
  HS02004802HS02004478 CONDUIT     53.18     0  02:21      0.30    0.05    0.26
  HS02004478WS02006287 CONDUIT    205.24     0  02:18      1.32    0.06    0.17
  HS02004817HS02004807 CONDUIT     39.35     0  02:22      0.11    0.02    0.51
  HS02004807HS02004802 CONDUIT     52.78     0  02:20      0.25    0.10    0.30
  YS02001759YS02001757 CONDUIT    217.55     0  03:05      0.28    0.15    1.00
  YS02001762YS02001759 CONDUIT    129.53     0  03:04      0.18    0.15    1.00
  YS02001765YS02001762 CONDUIT    128.61     0  03:29      0.23    0.12    1.00
  YS02001770YS02001767 CONDUIT    140.85     0  03:58      0.32    0.56    1.00
  YS02001774YS02001770 CONDUIT     89.71     0  03:56      0.15    0.06    0.99
  YS02001779YS02001774 CONDUIT     88.70     0  03:56      0.12    0.04    0.91
  YS02001649YS02001757 CONDUIT    346.86     0  03:25      0.44    0.21    1.00
  YS02001767YS02001765 CONDUIT    118.08     0  03:14      0.26    0.15    1.00
  YS02006561YS02001783 CONDUIT    313.59     0  02:53      1.79    0.16    0.38
  YS02001783YS02001784 CONDUIT    313.59     0  02:53      1.23    0.43    0.50
  YS02001784YS02001785 CONDUIT    314.63     0  02:53      1.31    0.73    0.48
  YS02001788YS02001790 CONDUIT    314.74     0  02:54      1.88    0.23    0.37
  YS02001790YS02001791 CONDUIT    314.89     0  02:54      2.17    0.34    0.33
  YS02001791YS02001793 CONDUIT    316.17     0  02:53      4.39    0.14    0.22
  YS02001910YS02001907 CONDUIT     97.66     0  03:01      0.49    0.06    0.74
  YS02001786YS02001788 CONDUIT    314.67     0  02:54      1.75    0.61    0.39
  YS02001915YS02001910 CONDUIT     97.52     0  03:00      0.44    0.05    0.53
  YS02001918YS02001915 CONDUIT     32.95     0  03:03      0.44    0.02    0.26
  YS02001923YS02001920 CONDUIT     30.11     0  03:02      0.45    0.01    0.14
  YS02001926YS02001923 CONDUIT     30.08     0  03:01      0.49    0.04    0.13
  YS02001929YS02001926 CONDUIT     30.08     0  03:01      0.52    0.01    0.13
  YS02001920YS02001918 CONDUIT     32.96     0  03:02      0.46    0.03    0.15
  YS02001629YS02163301 CONDUIT    112.30     0  03:28      0.16    0.14    0.98
  YS02001619YS02001622 CONDUIT    100.13     0  03:45      0.66    0.15    0.60
  YS02001622YS02001625 CONDUIT    110.41     0  03:43      0.25    0.06    0.76
  YS02001625YS02001629 CONDUIT    138.46     0  03:45      0.26    0.07    0.75
  YS02163301YS02001633 CONDUIT     82.11     0  04:24      0.11    0.08    1.00
  YS02163601YS02164001 CONDUIT    174.01     0  03:28      0.22    0.15    1.00
  YS02164001YS02001641 CONDUIT    183.83     0  03:27      0.24    0.25    1.00
  YS02001641YS02001644 CONDUIT    160.63     0  03:25      0.21    0.52    1.00
  YS02001647YS02001649 CONDUIT    252.25     0  03:59      0.33    0.13    0.96
  YS02006553YS02006556 CONDUIT    213.74     0  02:56      0.31    0.18    0.82
  YS02006556YS02006558 CONDUIT    213.76     0  02:56      0.30    0.17    0.85
  YSB6556YSB1171       CONDUIT     12.96     0  02:19      0.06    0.01    0.57
  YS02001907YS02006553 CONDUIT    213.65     0  02:56      0.26    0.25    0.93
  YS02006558YS02006561 CONDUIT    313.59     0  02:53      2.29    0.69    0.49
  YS02001633YS02163601 CONDUIT    155.63     0  03:20      0.20    0.16    1.00
  YS02001644YS02001647 CONDUIT    218.21     0  03:02      0.30    0.13    0.96
  YS02001745YS02001748 CONDUIT     71.63     0  03:00      1.40    0.03    0.23
  YS02001748YS02001751 CONDUIT    230.63     0  03:24      1.09    0.12    0.53
  YS02001751YS02001754 CONDUIT     95.30     0  02:38      0.97    0.05    0.76
  YS02001754YS02001757 CONDUIT    208.03     0  03:25      0.33    0.08    0.96
  YS02001882YS02001884 CONDUIT      4.01     0  02:10      0.06    0.00    0.46
  YS02001884YS02001887 CONDUIT     11.59     0  02:07      0.06    0.02    0.56
  YS02001890YS02001895 CONDUIT    118.52     0  02:44      0.29    0.06    0.53
  YS02001895YS02001898 CONDUIT    118.43     0  02:47      0.49    0.21    0.39
  YS02001898YS02001901 CONDUIT    118.34     0  02:46      0.33    0.08    0.47
  YS02001901YS02001904 CONDUIT    117.75     0  02:48      0.29    0.18    0.52
  YS02001904YS02001907 CONDUIT    117.95     0  02:48      0.21    0.04    0.68
  YS02001887YS02001890 CONDUIT    119.00     0  02:44      0.24    0.20    0.61
  YS02001652YS02001649 CONDUIT    217.20     0  03:25      0.33    0.11    0.98
  YS02001655YS02001652 CONDUIT    116.50     0  02:59      1.05    0.06    0.80
  YS02001658YS02001655 CONDUIT    223.91     0  03:26      1.26    0.09    0.51
  YS02001661YS02001658 CONDUIT     84.67     0  02:44      1.45    0.03    0.23
  YS02001664YS02001661 CONDUIT     84.67     0  02:44      1.11    0.03    0.15
  YSB1154YSB6556       CONDUIT     12.76     0  02:16      0.19    0.02    0.46
  YSB1174YSB1171       CONDUIT     11.92     0  02:11      0.06    0.02    0.58
  YSB1171HS02004479    CONDUIT     23.78     0  02:18      0.54    0.02    0.45
  HS02004881HS02006253 CONDUIT     38.84     0  02:17      1.66    0.01    0.24
  YS02001793JiankangQianchi CONDUIT    316.46     0  02:53     13.22    0.03    0.55
  YS02001757CaochengTiaoxuchi CONDUIT    531.42     0  03:01      1.19    0.23    0.74
  WSF200WS02003060     CONDUIT    505.12     0  02:38      1.80    0.11    0.32
  1                    CONDUIT    848.34     0  03:14      3.18    0.30    0.37
  2                    CONDUIT    128.26     0  03:00      5.19    0.31    0.38
  3                    CONDUIT    510.86     0  03:00      9.82    0.81    0.69
  4                    CONDUIT      0.00     0  00:00      0.00    0.00    0.00
  CC-Pump-1            PUMP       200.00     0  02:50              1.00
  CC-Pump-2            PUMP       200.00     0  02:23              1.00
  JK-Pump-1            PUMP       300.00     0  02:38              1.00
  JK-Pump-2            PUMP       300.00     0  02:50              1.00
  XR-Pump-1            PUMP        95.00     0  00:00              1.00
  XR-Pump-2            PUMP        95.00     0  00:00              1.00
  XR-Pump-3            PUMP        95.00     0  00:20              1.00
  XR-Pump-4            PUMP        95.00     0  01:40              1.00
  
  
  ***************************
  Flow Classification Summary
  ***************************
  
  -------------------------------------------------------------------------------------
                      Adjusted    ---------- Fraction of Time in Flow Class ---------- 
                       /Actual         Up    Down  Sub   Sup   Up    Down  Norm  Inlet 
  Conduit               Length    Dry  Dry   Dry   Crit  Crit  Crit  Crit  Ltd   Ctrl  
  -------------------------------------------------------------------------------------
  WS02003066WSF200        1.00   0.05  0.01  0.00  0.00  0.94  0.00  0.00  0.70  0.00
  WS02006287WS02006284    1.00   0.04  0.02  0.00  0.69  0.26  0.00  0.00  0.78  0.00
  WS02006284WS02006280    1.00   0.04  0.00  0.00  0.00  0.00  0.00  0.96  0.00  0.00
  WS02006280WS02006229    1.00   0.04  0.00  0.00  0.00  0.00  0.00  0.96  0.00  0.00
  WS02006229WS02006228    1.00   0.00  0.00  0.00  1.00  0.00  0.00  0.00  0.00  0.00
  WS02006256WS02006235    1.00   0.00  0.00  0.00  0.99  0.00  0.00  0.00  0.00  0.00
  WS02006253WS02006251    1.00   0.03  0.01  0.00  0.96  0.00  0.00  0.00  0.00  0.00
  WS02006252WS02006251    1.00   0.08  0.00  0.00  0.00  0.00  0.92  0.00  0.00  0.00
  WS02006251WS02006249    1.00   0.00  0.00  0.00  1.00  0.00  0.00  0.00  0.27  0.00
  WS02006249WS02006248    1.00   0.00  0.00  0.00  0.91  0.00  0.09  0.00  0.00  0.00
  WS02006248WS02006247    1.00   0.00  0.00  0.00  0.97  0.00  0.00  0.02  0.16  0.00
  WS02006247WS02006245    1.00   0.00  0.00  0.00  0.98  0.00  0.00  0.02  0.00  0.00
  WS02006245WS02006243    1.00   0.01  0.00  0.00  0.95  0.00  0.00  0.04  0.01  0.00
  WS02006243WS02006242    1.00   0.01  0.00  0.00  0.99  0.00  0.00  0.00  0.25  0.00
  WS02006242WS02006240    1.00   0.01  0.00  0.00  0.99  0.00  0.00  0.00  0.00  0.00
  WS02006240WS02006239    1.00   0.00  0.00  0.00  0.96  0.00  0.00  0.04  0.01  0.00
  WS02006239WS02006238    1.00   0.00  0.00  0.00  1.00  0.00  0.00  0.00  0.00  0.00
  WS02006238WS02006235    1.00   0.00  0.00  0.00  1.00  0.00  0.00  0.00  0.00  0.00
  WS02006235WS02006234    1.00   0.00  0.00  0.00  0.95  0.00  0.04  0.00  0.00  0.00
  WS02006234WS02006232    1.00   0.00  0.00  0.00  1.00  0.00  0.00  0.00  0.08  0.00
  WS02006232WS02006231    1.00   0.00  0.00  0.00  0.99  0.00  0.00  0.00  0.00  0.00
  WS02006231WS02006230    1.00   0.01  0.00  0.00  0.50  0.00  0.50  0.00  0.00  0.00
  WS02006230WS02006229    1.00   0.00  0.00  0.00  0.99  0.00  0.00  0.01  0.00  0.00
  WS02006228WS02006109    1.00   0.00  0.00  0.00  1.00  0.00  0.00  0.00  0.00  0.00
  WS02006116WS02004401    1.00   0.03  0.00  0.00  0.97  0.00  0.00  0.00  0.00  0.00
  WS02006115WS02006116    1.00   0.03  0.00  0.00  0.97  0.00  0.00  0.01  0.00  0.00
  WS02006113WS02006111    1.00   0.02  0.00  0.00  0.00  0.98  0.00  0.00  0.11  0.00
  WS02006112WS02006115    1.00   0.02  0.00  0.00  0.97  0.00  0.00  0.00  0.00  0.00
  WS02006111WS02006112    1.00   0.02  0.00  0.00  0.97  0.00  0.00  0.00  0.96  0.00
  WS02006110WS02006113    1.00   0.00  0.02  0.00  0.98  0.00  0.00  0.00  0.00  0.00
  WS02006109WS02006110    1.00   0.00  0.00  0.00  1.00  0.00  0.00  0.00  0.00  0.00
  WS02004411WS02004412    1.00   0.04  0.00  0.00  0.96  0.00  0.00  0.00  0.00  0.00
  WS02004401WS02004402    1.00   0.03  0.00  0.00  0.97  0.00  0.00  0.00  0.00  0.00
  WS02004413WS02003067    1.00   0.04  0.01  0.00  0.00  0.00  0.94  0.00  0.00  0.00
  WS02004412WS02004413    1.00   0.04  0.00  0.00  0.96  0.00  0.00  0.00  0.03  0.00
  WS02004410WS02004411    1.00   0.04  0.00  0.00  0.96  0.00  0.00  0.00  0.03  0.00
  WS02004409WS02004410    1.00   0.04  0.00  0.00  0.96  0.00  0.00  0.00  0.04  0.00
  WS02004407WS02004409    1.00   0.04  0.00  0.00  0.96  0.00  0.00  0.00  0.87  0.00
  WS02004406WS02004407    1.00   0.00  0.04  0.00  0.96  0.00  0.00  0.00  0.00  0.00
  WS02004405WS02004406    1.00   0.00  0.00  0.00  1.00  0.00  0.00  0.00  0.03  0.00
  WS02004404WS02004405    1.00   0.00  0.00  0.00  1.00  0.00  0.00  0.00  0.00  0.00
  WS02004403WS02004404    1.00   0.00  0.03  0.00  0.97  0.00  0.00  0.00  0.01  0.00
  WS02004402WS02004403    1.00   0.03  0.00  0.00  0.97  0.00  0.00  0.00  0.00  0.00
  WS02004139WS02001211    1.00   0.00  0.00  0.00  1.00  0.00  0.00  0.00  0.00  0.00
  WS02004138WS02004139    1.00   0.00  0.00  0.00  1.00  0.00  0.00  0.00  1.00  0.00
  WS02003067WS02003066    1.00   0.06  0.00  0.00  0.94  0.00  0.00  0.00  0.00  0.00
  WS02001213WS02003059    1.00   0.00  0.00  0.00  1.00  0.00  0.00  0.00  0.00  0.00
  WS02001212WS02001213    1.00   0.00  0.00  0.00  0.87  0.00  0.13  0.00  0.00  0.00
  WS02001211WS02001212    1.00   0.00  0.00  0.00  1.00  0.00  0.00  0.00  0.00  0.00
  WS02003072WS02003073    1.00   0.00  0.00  0.00  0.00  0.00  0.00  1.00  0.00  0.00
  WS02003069WS02003072    1.00   0.00  0.00  0.00  1.00  0.00  0.00  0.00  0.24  0.00
  WS02003060WS02003069    1.00   0.00  0.00  0.00  1.00  0.00  0.00  0.00  0.11  0.00
  WS02003059WS02003060    1.00   0.00  0.00  0.00  1.00  0.00  0.00  0.00  0.01  0.00
  HS02004901HS02004770    1.00   0.04  0.00  0.00  0.96  0.00  0.00  0.00  0.02  0.00
  HS02004876HS02004881    1.00   0.00  0.00  0.00  1.00  0.00  0.00  0.00  0.00  0.00
  HS02004870HS02004876    1.00   0.00  0.00  0.00  0.99  0.01  0.00  0.00  0.95  0.00
  HS02004842HS02004848    1.00   0.00  0.04  0.00  0.96  0.00  0.00  0.00  0.69  0.00
  HS02004837HS02004842    1.00   0.00  0.00  0.00  1.00  0.00  0.00  0.00  0.11  0.00
  HS02004830HS02004837    1.00   0.00  0.00  0.00  1.00  0.00  0.00  0.00  0.99  0.00
  HS02004824HS02004830    1.00   0.00  0.00  0.00  1.00  0.00  0.00  0.00  0.00  0.00
  HS02004817HS02004824    1.00   0.00  0.00  0.00  1.00  0.00  0.00  0.00  1.00  0.00
  HS02004770HS02004777    1.00   0.00  0.04  0.00  0.96  0.00  0.00  0.00  0.07  0.00
  HS02004799HS02004480    1.00   0.00  0.02  0.00  0.95  0.00  0.04  0.00  0.00  0.00
  HS02004792HS02004799    1.00   0.00  0.00  0.00  1.00  0.00  0.00  0.00  0.98  0.00
  HS02004788HS02004792    1.00   0.00  0.00  0.00  1.00  0.00  0.00  0.00  0.98  0.00
  HS02004785HS02004788    1.00   0.00  0.00  0.00  1.00  0.00  0.00  0.00  0.00  0.00
  HS02004777HS02004785    1.00   0.00  0.00  0.00  1.00  0.00  0.00  0.00  0.21  0.00
  HS02004480HS02004478    1.00   0.04  0.00  0.00  0.72  0.00  0.00  0.23  0.00  0.00
  HS02004479HS02004480    1.00   0.02  0.00  0.00  0.98  0.00  0.00  0.00  0.16  0.00
  HS02004862HS02004870    1.00   0.00  0.00  0.00  1.00  0.00  0.00  0.00  0.06  0.00
  HS02004848HS02004852    1.00   0.04  0.00  0.00  0.96  0.00  0.00  0.00  0.71  0.00
  HS02004856HS02004862    1.00   0.00  0.06  0.00  0.94  0.00  0.00  0.00  0.74  0.00
  HS02004852HS02004856    1.00   0.04  0.01  0.00  0.95  0.00  0.00  0.00  0.83  0.00
  HS02004802HS02004478    1.00   0.04  0.01  0.00  0.95  0.00  0.00  0.00  0.01  0.00
  HS02004478WS02006287    1.00   0.05  0.00  0.00  0.88  0.07  0.00  0.00  0.77  0.00
  HS02004817HS02004807    1.00   0.00  0.04  0.00  0.96  0.00  0.00  0.00  0.00  0.00
  HS02004807HS02004802    1.00   0.04  0.00  0.00  0.96  0.00  0.00  0.00  0.01  0.00
  YS02001759YS02001757    1.00   0.00  0.00  0.00  1.00  0.00  0.00  0.00  0.17  0.00
  YS02001762YS02001759    1.00   0.00  0.00  0.00  1.00  0.00  0.00  0.00  0.04  0.00
  YS02001765YS02001762    1.00   0.00  0.00  0.00  1.00  0.00  0.00  0.00  0.22  0.00
  YS02001770YS02001767    1.00   0.00  0.00  0.00  1.00  0.00  0.00  0.00  0.00  0.00
  YS02001774YS02001770    1.00   0.00  0.05  0.00  0.95  0.00  0.00  0.00  0.07  0.00
  YS02001779YS02001774    1.00   0.00  0.00  0.00  1.00  0.00  0.00  0.00  0.26  0.00
  YS02001649YS02001757    1.00   0.00  0.00  0.00  1.00  0.00  0.00  0.00  0.19  0.00
  YS02001767YS02001765    1.00   0.00  0.00  0.00  1.00  0.00  0.00  0.00  0.01  0.00
  YS02006561YS02001783    1.00   0.07  0.00  0.00  0.00  0.93  0.00  0.00  0.73  0.00
  YS02001783YS02001784    1.00   0.00  0.07  0.00  0.93  0.00  0.00  0.00  0.00  0.00
  YS02001784YS02001785    1.00   0.00  0.00  0.00  1.00  0.00  0.00  0.00  0.25  0.00
  YS02001788YS02001790    1.00   0.00  0.00  0.00  0.07  0.93  0.00  0.00  0.78  0.00
  YS02001790YS02001791    1.00   0.00  0.00  0.00  0.00  1.00  0.00  0.00  0.53  0.00
  YS02001791YS02001793    1.00   0.00  0.00  0.00  0.00  1.00  0.00  0.00  0.00  0.00
  YS02001910YS02001907    1.00   0.00  0.00  0.00  0.99  0.00  0.00  0.00  0.13  0.00
  YS02001786YS02001788    1.00   0.00  0.00  0.00  0.07  0.93  0.00  0.00  0.00  0.00
  YS02001915YS02001910    1.00   0.00  0.00  0.00  1.00  0.00  0.00  0.00  0.24  0.00
  YS02001918YS02001915    1.00   0.00  0.00  0.00  1.00  0.00  0.00  0.00  0.82  0.00
  YS02001923YS02001920    1.00   0.00  0.00  0.00  1.00  0.00  0.00  0.00  1.00  0.00
  YS02001926YS02001923    1.00   0.00  0.03  0.00  0.00  0.00  0.97  0.00  0.00  0.00
  YS02001929YS02001926    1.00   0.00  0.04  0.00  0.96  0.00  0.00  0.00  0.87  0.00
  YS02001920YS02001918    1.00   0.00  0.00  0.00  1.00  0.00  0.00  0.00  0.00  0.00
  YS02001629YS02163301    1.00   0.06  0.00  0.00  0.94  0.00  0.00  0.00  0.00  0.00
  YS02001619YS02001622    1.00   0.04  0.00  0.00  0.96  0.00  0.00  0.00  0.00  0.00
  YS02001622YS02001625    1.00   0.04  0.00  0.00  0.96  0.00  0.00  0.00  0.13  0.00
  YS02001625YS02001629    1.00   0.04  0.03  0.00  0.92  0.00  0.01  0.00  0.00  0.00
  YS02163301YS02001633    1.00   0.00  0.06  0.00  0.94  0.00  0.00  0.00  0.00  0.00
  YS02163601YS02164001    1.00   0.00  0.03  0.00  0.97  0.00  0.00  0.00  0.00  0.00
  YS02164001YS02001641    1.00   0.00  0.03  0.00  0.97  0.00  0.00  0.00  0.07  0.00
  YS02001641YS02001644    1.00   0.00  0.00  0.00  1.00  0.00  0.00  0.00  0.00  0.00
  YS02001647YS02001649    1.00   0.00  0.07  0.00  0.93  0.00  0.00  0.00  0.01  0.00
  YS02006553YS02006556    1.00   0.00  0.00  0.00  1.00  0.00  0.00  0.00  0.03  0.00
  YS02006556YS02006558    1.00   0.00  0.00  0.00  1.00  0.00  0.00  0.00  0.00  0.00
  YSB6556YSB1171          1.00   0.02  0.02  0.00  0.96  0.00  0.00  0.00  0.00  0.00
  YS02001907YS02006553    1.00   0.00  0.00  0.00  1.00  0.00  0.00  0.00  0.00  0.00
  YS02006558YS02006561    1.00   0.07  0.00  0.00  0.00  0.93  0.00  0.00  0.73  0.00
  YS02001633YS02163601    1.00   0.00  0.00  0.00  1.00  0.00  0.00  0.00  0.20  0.00
  YS02001644YS02001647    1.00   0.00  0.07  0.00  0.93  0.00  0.00  0.00  0.00  0.00
  YS02001745YS02001748    1.00   0.00  0.00  0.00  0.80  0.06  0.00  0.14  0.66  0.00
  YS02001748YS02001751    1.00   0.00  0.00  0.00  0.98  0.02  0.00  0.00  0.24  0.00
  YS02001751YS02001754    1.00   0.00  0.00  0.00  0.93  0.00  0.00  0.07  0.02  0.00
  YS02001754YS02001757    1.00   0.00  0.00  0.00  1.00  0.00  0.00  0.00  0.26  0.00
  YS02001882YS02001884    1.00   0.05  0.00  0.00  0.94  0.00  0.00  0.00  0.00  0.00
  YS02001884YS02001887    1.00   0.03  0.01  0.00  0.96  0.00  0.00  0.00  0.00  0.00
  YS02001890YS02001895    1.00   0.00  0.06  0.00  0.94  0.00  0.00  0.00  0.00  0.00
  YS02001895YS02001898    1.00   0.06  0.00  0.00  0.93  0.00  0.01  0.00  0.00  0.00
  YS02001898YS02001901    1.00   0.06  0.00  0.00  0.94  0.00  0.00  0.00  0.02  0.00
  YS02001901YS02001904    1.00   0.06  0.00  0.00  0.94  0.00  0.00  0.00  0.00  0.00
  YS02001904YS02001907    1.00   0.00  0.06  0.00  0.94  0.00  0.00  0.00  0.00  0.00
  YS02001887YS02001890    1.00   0.00  0.00  0.00  0.99  0.00  0.01  0.00  0.00  0.00
  YS02001652YS02001649    1.00   0.00  0.00  0.00  1.00  0.00  0.00  0.00  0.26  0.00
  YS02001655YS02001652    1.00   0.00  0.00  0.00  0.93  0.00  0.00  0.07  0.02  0.00
  YS02001658YS02001655    1.00   0.00  0.05  0.00  0.92  0.02  0.00  0.00  0.12  0.00
  YS02001661YS02001658    1.00   0.05  0.00  0.00  0.85  0.10  0.00  0.00  0.73  0.00
  YS02001664YS02001661    1.00   0.04  0.00  0.00  0.75  0.21  0.00  0.00  0.86  0.00
  YSB1154YSB6556          1.00   0.04  0.00  0.00  0.96  0.00  0.00  0.00  0.02  0.00
  YSB1174YSB1171          1.00   0.03  0.01  0.00  0.97  0.00  0.00  0.00  0.00  0.00
  YSB1171HS02004479       1.00   0.02  0.00  0.00  0.97  0.00  0.00  0.01  0.13  0.00
  HS02004881HS02006253    1.00   0.03  0.00  0.00  0.82  0.01  0.00  0.14  0.62  0.00
  YS02001793JiankangQianchi    1.00   0.00  0.00  0.00  0.16  0.84  0.00  0.00  0.19  0.00
  YS02001757CaochengTiaoxuchi    1.00   0.00  0.08  0.00  0.92  0.00  0.00  0.00  0.00  0.00
  WSF200WS02003060        1.00   0.00  0.05  0.00  0.61  0.34  0.00  0.00  0.26  0.00
  1                       1.00   0.00  0.00  0.00  0.00  1.00  0.00  0.00  0.42  0.00
  2                       1.00   0.69  0.00  0.00  0.00  0.31  0.00  0.00  0.07  0.00
  3                       1.00   0.15  0.00  0.00  0.00  0.85  0.00  0.00  0.28  0.00
  4                       1.00   1.00  0.00  0.00  0.00  0.00  0.00  0.00  0.00  0.00
  
  
  *************************
  Conduit Surcharge Summary
  *************************
  
  ----------------------------------------------------------------------------
                                                           Hours        Hours 
                         --------- Hours Full --------   Above Full   Capacity
  Conduit                Both Ends  Upstream  Dnstream   Normal Flow   Limited
  ----------------------------------------------------------------------------
  WS02006229WS02006228        1.36      1.53      1.36      4.52         1.36
  WS02006256WS02006235        5.66      5.67      7.37      3.05         0.01
  WS02006252WS02006251        1.08      1.08      1.93      1.72         0.01
  WS02006251WS02006249        0.01      0.01      0.01      1.10         0.01
  WS02006249WS02006248        0.01      0.01      0.01      4.58         0.01
  WS02006247WS02006245        0.01      0.01      0.01      4.89         0.01
  WS02006245WS02006243        0.01      0.01      0.01      0.02         0.01
  WS02006243WS02006242        0.01      0.01      0.88      0.01         0.01
  WS02006242WS02006240        0.24      0.24      1.27      1.89         0.01
  WS02006240WS02006239        0.29      0.29      0.33      0.01         0.01
  WS02006239WS02006238        1.13      1.13      1.29      0.08         0.08
  WS02006238WS02006235        1.16      1.16      1.66      0.01         0.01
  WS02006235WS02006234        0.23      0.23      0.96      5.69         0.01
  WS02006234WS02006232        0.45      0.45      1.72      0.01         0.01
  WS02006232WS02006231        0.01      0.01      1.72      0.01         0.01
  WS02006231WS02006230        0.01      0.01      0.01      5.69         0.01
  WS02006230WS02006229        2.28      4.16      2.28      5.79         2.28
  WS02006228WS02006109        1.42      1.99      1.42      5.24         1.42
  WS02006112WS02006115        0.01      0.01      0.19      0.01         0.01
  WS02006111WS02006112        0.01      0.01      4.71      0.01         0.01
  WS02006110WS02006113        0.01      0.01      1.76      0.01         0.01
  WS02006109WS02006110        0.01      0.01      1.98      0.01         0.01
  WS02004405WS02004406        0.01      0.01      0.01      0.07         0.01
  WS02004404WS02004405        0.01      0.01      0.01      5.61         0.01
  WS02003072WS02003073        0.01      0.01      0.01      4.99         0.01
  YS02001759YS02001757        3.53      3.53      4.71      0.01         0.01
  YS02001762YS02001759        2.28      2.28      3.53      0.01         0.01
  YS02001765YS02001762        1.19      1.19      2.28      0.01         0.01
  YS02001770YS02001767        0.40      0.42      0.57      0.01         0.03
  YS02001774YS02001770        0.01      0.01      1.67      0.01         0.01
  YS02001779YS02001774        0.01      0.01      1.67      0.01         0.01
  YS02001649YS02001757        2.77      2.77      4.71      0.01         0.01
  YS02001767YS02001765        0.57      0.57      1.19      0.01         0.01
  YS02001629YS02163301        0.01      0.01      0.05      0.01         0.01
  YS02163301YS02001633        0.05      0.05      1.23      0.01         0.01
  YS02163601YS02164001        1.07      1.07      2.51      0.01         0.01
  YS02164001YS02001641        1.07      1.07      1.41      0.01         0.01
  YS02001641YS02001644        1.38      1.41      1.53      0.01         0.29
  YS02001647YS02001649        0.01      0.01      2.77      0.01         0.01
  YS02001633YS02163601        0.80      0.80      2.51      0.01         0.01
  YS02001644YS02001647        0.01      0.01      1.53      0.01         0.01
  YS02001754YS02001757        0.01      0.01      4.71      0.01         0.01
  YS02001652YS02001649        0.01      0.01      2.77      0.01         0.01
  YS02001793JiankangQianchi        0.01      0.01      0.56      0.01         0.01
  YS02001757CaochengTiaoxuchi        0.01      0.01      4.71      0.01         0.01
  
  
  ***************
  Pumping Summary
  ***************
  
  ---------------------------------------------------------------------------------------------------------
                                                  Min       Avg       Max     Total     Power    % Time Off
                        Percent   Number of      Flow      Flow      Flow    Volume     Usage    Pump Curve
  Pump                 Utilized   Start-Ups       LPS       LPS       LPS  10^6 ltr     Kw-hr    Low   High
  ---------------------------------------------------------------------------------------------------------
  CC-Pump-1               60.07           6      0.00    127.72    200.00     2.160      8.17    0.0   42.0
  CC-Pump-2               62.20           7      0.00    147.31    200.00     2.517      9.57    0.0   44.0
  JK-Pump-1               89.34           6      0.00    136.37    300.00     2.644     50.36    0.0    0.0
  JK-Pump-2               76.58           8      0.00    118.02    300.00     1.828     35.43    0.0    0.0
  XR-Pump-1               78.72           9      0.00     67.63     95.00     1.454     14.90    0.0    0.0
  XR-Pump-2               89.35           8      0.00     60.38     95.00     1.568     16.32    0.0    0.0
  XR-Pump-3               78.71           6      0.00     68.98     95.00     1.624     17.03    0.0    0.0
  XR-Pump-4               89.34           6      0.00     68.35     95.00     1.681     16.04    0.0    0.0
  

  Analysis begun on:  Tue Dec 21 14:13:07 2021
  Analysis ended on:  Tue Dec 21 14:13:10 2021
  Total elapsed time: 00:00:03