
  EPA STORM WATER MANAGEMENT MODEL - VERSION 5.1 (Build 5.3.0.dev0)
  --------------------------------------------------------------

  WARNING 04: minimum elevation drop used for Conduit WS02004404WS02004405
  WARNING 03: negative offset ignored for Link YS02001904YS02001907
  
  *********************************************************
  NOTE: The summary statistics displayed in this report are
  based on results found at every computational time step,  
  not just on results from each reporting time step.
  *********************************************************
  
  ****************
  Analysis Options
  ****************
  Flow Units ............... LPS
  Process Models:
    Rainfall/Runoff ........ YES
    RDII ................... NO
    Snowmelt ............... NO
    Groundwater ............ NO
    Flow Routing ........... YES
    Ponding Allowed ........ NO
    Water Quality .......... NO
  Infiltration Method ...... HORTON
  Flow Routing Method ...... DYNWAVE
  Surcharge Method ......... EXTRAN
  Starting Date ............ 08/28/2015 08:00:00
  Ending Date .............. 08/28/2015 15:50:00
  Antecedent Dry Days ...... 8.0
  Report Time Step ......... 00:01:00
  Wet Time Step ............ 00:01:00
  Dry Time Step ............ 00:01:00
  Routing Time Step ........ 5.00 sec
  Variable Time Step ....... YES
  Maximum Trials ........... 8
  Number of Threads ........ 4
  Head Tolerance ........... 0.001500 m
  
  
  **************************        Volume         Depth
  Runoff Quantity Continuity     hectare-m            mm
  **************************     ---------       -------
  Total Precipitation ......         3.679         8.055
  Evaporation Loss .........         0.000         0.000
  Infiltration Loss ........         0.936         2.049
  Surface Runoff ...........         1.790         3.918
  Final Storage ............         0.955         2.090
  Continuity Error (%) .....        -0.018
  
  
  **************************        Volume        Volume
  Flow Routing Continuity        hectare-m      10^6 ltr
  **************************     ---------     ---------
  Dry Weather Inflow .......         0.616         6.165
  Wet Weather Inflow .......         1.789        17.887
  Groundwater Inflow .......         0.000         0.000
  RDII Inflow ..............         0.000         0.000
  External Inflow ..........         0.102         1.024
  External Outflow .........         1.949        19.487
  Flooding Loss ............         0.101         1.005
  Evaporation Loss .........         0.000         0.000
  Exfiltration Loss ........         0.000         0.000
  Initial Stored Volume ....         0.076         0.761
  Final Stored Volume ......         0.600         6.002
  Continuity Error (%) .....        -2.552
  
  
  *************************
  Highest Continuity Errors
  *************************
  Node YS02001774 (32.70%)
  Node HS02004842 (22.75%)
  Node YS02001884 (13.80%)
  Node JK-storage (-11.25%)
  Node YSB1171 (4.89%)
  
  
  ***************************
  Time-Step Critical Elements
  ***************************
  Link 3 (44.59%)
  Link WS02006252WS02006251 (42.66%)
  Link WS02006238WS02006235 (4.99%)
  Link WS02006280WS02006229 (1.65%)
  
  
  ********************************
  Highest Flow Instability Indexes
  ********************************
  Link WS02006113WS02006111 (37)
  Link YS02001779YS02001774 (29)
  Link YS02001774YS02001770 (26)
  Link WS02006252WS02006251 (23)
  Link YS02001619YS02001622 (22)
  
  
  *************************
  Routing Time Step Summary
  *************************
  Minimum Time Step           :     0.16 sec
  Average Time Step           :     0.85 sec
  Maximum Time Step           :     5.00 sec
  Percent in Steady State     :    -0.00
  Average Iterations per Step :     4.90
  Percent Not Converging      :    35.06
  
  
  ***************************
  Subcatchment Runoff Summary
  ***************************
  
  ------------------------------------------------------------------------------------------------------------------------------
                            Total      Total      Total      Total     Imperv       Perv      Total       Total     Peak  Runoff
                           Precip      Runon       Evap      Infil     Runoff     Runoff     Runoff      Runoff   Runoff   Coeff
  Subcatchment                 mm         mm         mm         mm         mm         mm         mm    10^6 ltr      LPS
  ------------------------------------------------------------------------------------------------------------------------------
  sub0                       8.06       0.00       0.00       0.56       6.23       0.00       6.23        0.01     2.15   0.773
  sub1                       8.06       0.00       0.00       0.89       5.91       0.00       5.91        0.04    11.80   0.734
  sub2                       8.06       0.00       0.00       2.98       4.17       0.00       4.17        0.04    10.54   0.517
  sub3                       8.06       0.00       0.00       2.98       4.13       0.00       4.13        0.09    21.95   0.513
  sub4                       8.06       0.00       0.00       0.89       5.77       0.00       5.77        0.12    24.90   0.716
  sub5                       8.06       0.00       0.00       0.56       6.18       0.00       6.18        0.07    20.99   0.767
  sub7                       8.06       0.00       0.00       0.72       6.08       0.00       6.08        0.02     7.27   0.754
  sub8                       8.06       0.00       0.00       0.72       6.07       0.00       6.07        0.04    12.92   0.753
  sub9                       8.06       0.00       0.00       0.72       6.06       0.00       6.06        0.03     9.59   0.753
  sub10                      8.06       0.00       0.00       0.64       6.12       0.00       6.12        0.07    20.88   0.760
  sub11                      8.06       0.00       0.00       0.64       6.14       0.00       6.14        0.07    24.25   0.762
  sub12                      8.06       0.00       0.00       1.05       5.82       0.00       5.82        0.05    20.11   0.722
  sub14                      8.06       0.00       0.00       0.72       6.06       0.00       6.06        0.06    18.77   0.753
  sub15                      8.06       0.00       0.00       2.42       4.66       0.00       4.66        0.08    25.52   0.578
  sub16                      8.06       0.00       0.00       2.66       4.48       0.00       4.48        0.05    17.80   0.556
  sub17                      8.06       0.00       0.00       2.58       4.54       0.00       4.54        0.04    14.42   0.564
  sub22                      8.06       0.00       0.00       3.46       3.80       0.00       3.80        0.24    82.82   0.472
  sub23                      8.06       0.00       0.00       2.98       4.20       0.00       4.20        0.20    70.38   0.522
  sub60                      8.06       0.00       0.00       0.97       4.43       0.00       4.43        1.34   135.38   0.550
  sub61                      8.06       0.00       0.00       1.37       4.63       0.00       4.63        1.43   167.06   0.575
  sub62                      8.06       0.00       0.00       0.64       5.00       0.00       5.00        1.54   171.55   0.620
  sub63                      8.06       0.00       0.00       2.34       4.09       0.00       4.09        1.24   154.92   0.508
  sub64                      8.06       0.00       0.00       1.21       4.24       0.00       4.24        1.29   128.75   0.527
  sub65                      8.06       0.00       0.00       1.05       4.30       0.00       4.30        1.32   130.82   0.534
  sub66                      8.06       0.00       0.00       2.34       3.67       0.00       3.67        1.13   117.38   0.456
  sub67                      8.06       0.00       0.00       0.64       5.39       0.00       5.39        1.66   216.94   0.669
  sub68                      8.06       0.00       0.00       1.13       4.90       0.00       4.90        1.51   183.95   0.608
  sub69                      8.06       0.00       0.00       1.21       5.19       0.00       5.19        1.21   179.57   0.644
  sub70                      8.06       5.30       0.00       4.54       6.64       0.00       6.64        1.52   155.14   0.497
  sub71                      8.06       0.00       0.00       0.64       4.82       0.00       4.82        1.14   120.44   0.598
  sub72                      8.06       0.00       0.00       0.56       3.59       0.00       3.59        0.73    59.05   0.445
  sub73                      8.06       6.46       0.00       4.94       6.98       0.00       6.98        1.64   136.02   0.481
  sub74                      8.06       0.00       0.00       6.04       1.56       0.00       1.56        0.62    99.54   0.193
  
  
  ******************
  Node Depth Summary
  ******************
  
  ---------------------------------------------------------------------------------
                                 Average  Maximum  Maximum  Time of Max    Reported
                                   Depth    Depth      HGL   Occurrence   Max Depth
  Node                 Type       Meters   Meters   Meters  days hr:min      Meters
  ---------------------------------------------------------------------------------
  WS02001211           JUNCTION     0.66     0.78     5.62     0  05:18        0.78
  WS02001212           JUNCTION     0.39     0.49     5.55     0  05:17        0.49
  WS02001213           JUNCTION     0.62     0.73     5.49     0  05:17        0.73
  WS02003069           JUNCTION     0.45     0.57     5.16     0  02:26        0.57
  WS02003072           JUNCTION     0.51     0.63     5.00     0  02:27        0.63
  WS02003073           JUNCTION     0.31     0.39     4.45     0  02:28        0.39
  WS02003060           JUNCTION     0.40     0.51     5.44     0  02:26        0.51
  WS02003066           JUNCTION     0.24     0.32     5.87     0  02:29        0.32
  WS02003059           JUNCTION     0.68     0.78     5.47     0  02:25        0.78
  WS02003067           JUNCTION     0.59     0.73     6.05     0  02:29        0.73
  WS02004401           JUNCTION     0.69     0.92     6.92     0  02:25        0.92
  WS02004402           JUNCTION     0.72     0.94     6.90     0  02:25        0.94
  WS02004403           JUNCTION     0.74     0.95     6.88     0  02:25        0.95
  WS02004404           JUNCTION     0.82     1.02     6.87     0  02:25        1.02
  WS02004406           JUNCTION     0.82     1.00     6.83     0  02:26        1.00
  WS02004409           JUNCTION     0.51     0.72     6.49     0  02:28        0.72
  WS02004410           JUNCTION     0.53     0.73     6.45     0  02:28        0.73
  WS02004411           JUNCTION     0.54     0.74     6.42     0  02:28        0.74
  WS02004412           JUNCTION     0.56     0.74     6.38     0  02:28        0.74
  WS02004413           JUNCTION     0.72     0.89     6.36     0  02:28        0.89
  WS02004405           JUNCTION     0.81     1.01     6.86     0  02:25        1.01
  WS02006109           JUNCTION     0.77     1.10     7.72     0  02:17        1.05
  WS02006110           JUNCTION     0.76     1.00     7.59     0  02:17        0.99
  WS02006111           JUNCTION     0.23     0.31     7.02     0  02:18        0.31
  WS02006112           JUNCTION     0.86     1.19     7.07     0  02:30        1.12
  WS02006113           JUNCTION     0.35     0.50     7.39     0  02:18        0.50
  WS02006115           JUNCTION     0.58     0.83     6.97     0  02:24        0.83
  WS02006116           JUNCTION     0.67     0.90     6.94     0  02:25        0.90
  WS02006230           JUNCTION     0.76     1.23     7.98     0  02:17        1.12
  WS02006231           JUNCTION     0.51     0.93     8.05     0  02:17        0.77
  WS02006232           JUNCTION     0.65     1.08     8.12     0  02:17        0.90
  WS02006234           JUNCTION     0.58     1.03     8.18     0  02:17        0.83
  WS02006235           JUNCTION     0.61     0.99     8.16     0  02:17        0.86
  WS02006238           JUNCTION     0.64     1.02     8.16     0  02:17        0.88
  WS02006240           JUNCTION     0.54     0.99     8.28     0  02:17        0.79
  WS02006242           JUNCTION     0.60     1.06     8.33     0  02:17        0.87
  WS02006243           JUNCTION     0.49     1.21     8.63     0  02:17        0.78
  WS02006245           JUNCTION     0.47     0.82     8.30     0  02:17        0.75
  WS02006247           JUNCTION     0.48     0.79     8.29     0  02:17        0.74
  WS02006248           JUNCTION     0.43     0.66     8.25     0  02:17        0.65
  WS02006249           JUNCTION     0.45     0.65     8.25     0  02:18        0.65
  WS02006239           JUNCTION     0.60     1.06     8.27     0  02:17        0.85
  WS02006251           JUNCTION     0.45     0.70     8.37     0  02:19        0.70
  WS02006252           JUNCTION     0.41     0.59     8.84     0  05:21        0.59
  WS02006253           JUNCTION     0.48     0.72     8.37     0  02:19        0.72
  WS02006256           JUNCTION     1.05     1.22     8.15     0  02:30        1.21
  WS02004138           JUNCTION     0.15     0.19     7.44     0  01:00        0.19
  WS02004407           JUNCTION     0.23     0.32     6.63     0  02:26        0.32
  WS02006228           JUNCTION     0.78     1.17     7.82     0  02:17        1.11
  WS02006229           JUNCTION     0.76     1.19     7.88     0  02:17        1.12
  WS02006280           JUNCTION     0.06     0.18     8.45     0  02:15        0.18
  WS02006284           JUNCTION     0.36     0.53     8.93     0  02:14        0.53
  WS02006287           JUNCTION     0.09     0.27     9.22     0  02:14        0.27
  WSF200               JUNCTION     0.23     0.34     5.57     0  02:29        0.34
  HS02004901           JUNCTION     0.12     0.27    10.10     0  02:12        0.27
  HS02004881           JUNCTION     0.01     0.03     9.06     0  02:15        0.03
  HS02004876           JUNCTION     0.04     0.11     9.14     0  02:08        0.11
  HS02004870           JUNCTION     0.01     0.06     9.34     0  02:15        0.06
  HS02004862           JUNCTION     0.02     0.06     9.45     0  02:16        0.06
  HS02004856           JUNCTION     0.08     0.12     9.54     0  02:15        0.12
  HS02004852           JUNCTION     0.01     0.04     9.55     0  02:16        0.04
  HS02004848           JUNCTION     0.01     0.04     9.64     0  02:15        0.04
  HS02004842           JUNCTION     0.33     0.37     9.64     0  02:15        0.37
  HS02004837           JUNCTION     0.03     0.06     9.64     0  02:15        0.06
  HS02004830           JUNCTION     0.04     0.07     9.54     0  02:15        0.07
  HS02004824           JUNCTION     0.02     0.05     9.45     0  02:18        0.05
  HS02004817           JUNCTION     0.43     0.57     9.42     0  02:15        0.57
  HS02004807           JUNCTION     0.12     0.25     9.42     0  02:15        0.25
  HS02004802           JUNCTION     0.16     0.28     9.41     0  02:15        0.28
  HS02004799           JUNCTION     0.11     0.32     9.53     0  02:13        0.32
  HS02004792           JUNCTION     0.03     0.13     9.65     0  02:12        0.13
  HS02004788           JUNCTION     0.02     0.10    10.00     0  02:13        0.10
  HS02004785           JUNCTION     0.04     0.17    10.07     0  02:12        0.17
  HS02004777           JUNCTION     0.14     0.29    10.09     0  02:12        0.29
  HS02004770           JUNCTION     0.11     0.26    10.10     0  02:12        0.26
  HS02004480           JUNCTION     0.07     0.25     9.49     0  02:13        0.25
  HS02004479           JUNCTION     0.11     0.29     9.49     0  02:13        0.29
  HS02004478           JUNCTION     0.06     0.17     9.40     0  02:14        0.17
  YS02001745           JUNCTION     0.52     0.79     8.31     0  04:49        0.78
  YS02001748           JUNCTION     0.91     1.23     8.31     0  05:15        1.22
  YS02001751           JUNCTION     1.10     2.02     8.89     0  03:04        1.42
  YS02001754           JUNCTION     1.35     2.03     8.64     0  03:04        1.70
  YS02001762           JUNCTION     1.54     1.94     8.34     0  04:46        1.93
  YS02001765           JUNCTION     1.50     1.90     8.35     0  04:48        1.89
  YS02001767           JUNCTION     1.46     1.87     8.35     0  04:49        1.85
  YS02001770           JUNCTION     1.46     1.94     8.43     0  03:04        1.84
  YS02001774           JUNCTION     1.53     2.00     8.43     0  03:04        1.92
  YS02001779           JUNCTION     1.28     1.68     8.37     0  03:02        1.65
  YS02001882           JUNCTION     0.36     0.62     7.34     0  02:51        0.61
  YS02001884           JUNCTION     0.45     0.71     7.33     0  02:46        0.71
  YS02001759           JUNCTION     1.58     1.97     8.33     0  04:48        1.96
  YS02001887           JUNCTION     0.53     0.79     7.33     0  02:51        0.79
  YS02001890           JUNCTION     0.56     0.82     7.33     0  02:50        0.82
  YS02001898           JUNCTION     0.33     0.58     7.31     0  02:54        0.57
  YS02001901           JUNCTION     0.45     0.70     7.31     0  02:49        0.70
  YS02001904           JUNCTION     0.42     0.68     7.31     0  02:57        0.68
  YS02001907           JUNCTION     0.75     1.04     7.33     0  02:45        1.02
  YS02001910           JUNCTION     0.54     0.81     7.31     0  02:56        0.80
  YS02001915           JUNCTION     0.34     0.59     7.31     0  02:52        0.59
  YS02001918           JUNCTION     0.11     0.24     7.31     0  02:54        0.24
  YS02001619           JUNCTION     1.06     1.54     8.47     0  03:40        1.46
  YS02001629           JUNCTION     1.41     1.85     8.40     0  03:48        1.83
  YS02001641           JUNCTION     1.52     1.93     8.37     0  04:52        1.92
  YS02001644           JUNCTION     1.52     1.92     8.35     0  04:45        1.92
  YS02001652           JUNCTION     1.36     2.10     8.69     0  03:02        1.76
  YS02001655           JUNCTION     1.13     2.20     9.05     0  03:00        1.52
  YS02001920           JUNCTION     0.21     0.31     7.32     0  02:55        0.31
  YS02001923           JUNCTION     0.08     0.11     7.37     0  03:01        0.11
  YS02001926           JUNCTION     0.17     0.22     7.67     0  03:01        0.22
  YS02001929           JUNCTION     0.08     0.11     7.81     0  03:01        0.11
  YS02001658           JUNCTION     0.86     2.07     9.21     0  03:36        1.24
  YS02001661           JUNCTION     0.63     1.00     8.40     0  04:45        0.99
  YS02001664           JUNCTION     0.22     0.49     8.42     0  04:45        0.46
  YS02001622           JUNCTION     1.09     1.52     8.42     0  03:48        1.48
  YS02001633           JUNCTION     1.51     1.94     8.39     0  04:53        1.92
  YS02001649           JUNCTION     1.56     1.96     8.35     0  04:46        1.95
  YS02001757           JUNCTION     1.68     2.07     8.33     0  04:47        2.06
  YS02001895           JUNCTION     0.32     0.57     7.32     0  02:50        0.57
  YS02001625           JUNCTION     1.37     1.78     8.38     0  03:46        1.78
  YS02163301           JUNCTION     1.44     1.88     8.40     0  04:52        1.86
  YS02163601           JUNCTION     1.56     1.99     8.39     0  04:52        1.97
  YS02164001           JUNCTION     1.50     1.92     8.38     0  04:52        1.91
  YS02001647           JUNCTION     1.35     1.74     8.35     0  04:46        1.73
  YSB1154              JUNCTION     0.25     0.44     9.50     0  02:13        0.44
  YSB6556              JUNCTION     0.14     0.33     9.50     0  02:13        0.33
  YSB1174              JUNCTION     0.20     0.39     9.50     0  02:13        0.39
  YSB1171              JUNCTION     0.40     0.59     9.50     0  02:13        0.59
  YS02006553           JUNCTION     0.76     1.06     7.34     0  02:57        1.03
  YS02006561           JUNCTION     0.18     0.34     7.00     0  02:48        0.33
  YS02006556           JUNCTION     0.73     1.00     7.31     0  02:58        0.99
  YS02006558           JUNCTION     0.77     1.04     7.31     0  02:53        1.03
  YS02001783           JUNCTION     0.32     0.73     6.87     0  03:12        0.73
  YS02001784           JUNCTION     0.35     0.78     6.84     0  03:12        0.77
  YS02001786           JUNCTION     0.31     0.77     6.80     0  03:12        0.76
  YS02001788           JUNCTION     0.24     0.77     6.75     0  03:12        0.77
  YS02001790           JUNCTION     0.30     1.06     6.71     0  03:12        1.06
  YS02001791           JUNCTION     0.24     1.18     6.65     0  03:12        1.17
  YS02001793           JUNCTION     0.27     2.25     7.08     0  02:54        1.78
  WS02004139           JUNCTION     0.60     0.73     5.64     0  05:19        0.73
  WSC                  OUTFALL      0.31     0.39     1.06     0  02:28        0.39
  3                    OUTFALL      0.10     0.21     6.21     0  02:30        0.21
  4                    OUTFALL      0.04     0.15     7.15     0  02:18        0.15
  5                    OUTFALL      0.00     0.00     5.00     0  00:00        0.00
  JK-storage           STORAGE      1.62     5.80     6.60     0  03:11        5.80
  CC-storage           STORAGE      0.90     1.27     8.27     0  04:49        1.27
  XR-storage           STORAGE      6.75     7.72     5.72     0  03:09        7.72
  
  
  *******************
  Node Inflow Summary
  *******************
  
  -------------------------------------------------------------------------------------------------
                                  Maximum  Maximum                  Lateral       Total        Flow
                                  Lateral    Total  Time of Max      Inflow      Inflow     Balance
                                   Inflow   Inflow   Occurrence      Volume      Volume       Error
  Node                 Type           LPS      LPS  days hr:min    10^6 ltr    10^6 ltr     Percent
  -------------------------------------------------------------------------------------------------
  WS02001211           JUNCTION      7.35   387.80     0  05:20       0.207        6.93       0.420
  WS02001212           JUNCTION      0.00   388.06     0  05:20           0         6.9       0.231
  WS02001213           JUNCTION      0.00   388.44     0  05:20           0        6.89       0.295
  WS02003069           JUNCTION      0.32   917.41     0  02:26     0.00902        14.9       0.165
  WS02003072           JUNCTION      0.00   917.28     0  02:27           0        14.9       0.208
  WS02003073           JUNCTION      1.82   919.48     0  02:27      0.0514        14.9       0.221
  WS02003060           JUNCTION     16.53   917.02     0  02:25       0.466        14.9       0.164
  WS02003066           JUNCTION      0.00   612.81     0  02:29           0         7.6       0.057
  WS02003059           JUNCTION      0.00   389.00     0  05:20           0        6.87       0.479
  WS02003067           JUNCTION      0.00   612.79     0  02:29           0        7.61       0.122
  WS02004401           JUNCTION      0.00   617.89     0  02:24           0        7.85       0.298
  WS02004402           JUNCTION      0.00   618.17     0  02:25           0        7.83       0.278
  WS02004403           JUNCTION      0.00   617.56     0  02:25           0        7.81       0.251
  WS02004404           JUNCTION      0.16   617.40     0  02:25     0.00457        7.79       0.187
  WS02004406           JUNCTION      0.00   617.49     0  02:25           0        7.76       0.454
  WS02004409           JUNCTION      0.00   616.13     0  02:26           0        7.71       0.223
  WS02004410           JUNCTION      0.00   614.06     0  02:26           0         7.7       0.245
  WS02004411           JUNCTION      0.00   613.32     0  02:26           0        7.68       0.249
  WS02004412           JUNCTION      0.00   612.81     0  02:28           0        7.66       0.266
  WS02004413           JUNCTION      0.00   612.93     0  02:28           0        7.64       0.392
  WS02004405           JUNCTION      0.04   617.34     0  02:25     0.00107        7.78       0.278
  WS02006109           JUNCTION      1.23   638.72     0  02:17      0.0347        7.95       0.262
  WS02006110           JUNCTION      0.00   638.88     0  02:17           0        7.92       0.269
  WS02006111           JUNCTION      0.00   660.21     0  02:18           0        7.89       0.068
  WS02006112           JUNCTION     14.42   644.53     0  02:18       0.039        7.93       0.388
  WS02006113           JUNCTION      0.00   641.36     0  02:17           0         7.9       0.146
  WS02006115           JUNCTION      0.00   656.12     0  02:18           0        7.89       0.288
  WS02006116           JUNCTION      0.00   618.86     0  02:24           0        7.87       0.270
  WS02006230           JUNCTION     10.28   400.00     0  04:19        0.29        6.71       0.223
  WS02006231           JUNCTION      0.00   390.62     0  04:03           0        6.44       0.225
  WS02006232           JUNCTION      0.00   390.73     0  04:03           0        6.45       0.272
  WS02006234           JUNCTION      0.00   393.24     0  04:03           0        6.46       0.156
  WS02006235           JUNCTION      0.00   394.49     0  04:02           0        6.51       0.189
  WS02006238           JUNCTION      0.00   316.61     0  07:50           0        4.71       0.188
  WS02006240           JUNCTION      0.00   327.43     0  04:52           0         4.7       0.331
  WS02006242           JUNCTION      0.00   344.36     0  02:16           0        4.71       0.398
  WS02006243           JUNCTION      0.00   365.54     0  02:15           0         4.7      -0.075
  WS02006245           JUNCTION      0.00   378.78     0  02:15           0        4.72       0.368
  WS02006247           JUNCTION      0.00   386.39     0  02:15           0        4.73       0.224
  WS02006248           JUNCTION      0.00   394.82     0  02:14           0        4.73       0.143
  WS02006249           JUNCTION      0.00   471.71     0  02:19           0        5.55       0.283
  WS02006239           JUNCTION      0.00   317.20     0  04:52           0         4.7       0.274
  WS02006251           JUNCTION      0.08   473.15     0  02:19     0.00217         5.6       0.256
  WS02006252           JUNCTION      0.00   400.00     0  02:13           0        5.35       0.009
  WS02006253           JUNCTION      2.15    66.56     0  02:14     0.00504       0.264       3.141
  WS02006256           JUNCTION      0.00   600.00     0  02:30           0        5.68       0.057
  WS02004138           JUNCTION      0.00   380.00     0  01:00           0        6.75       0.065
  WS02004407           JUNCTION      0.00   616.43     0  02:26           0        7.72       0.107
  WS02006228           JUNCTION      0.00   637.57     0  02:17           0        7.93       0.191
  WS02006229           JUNCTION      0.00   642.06     0  02:17           0        7.94       0.181
  WS02006280           JUNCTION      0.00   330.26     0  02:15           0        1.24       0.005
  WS02006284           JUNCTION      0.10   330.23     0  02:14      0.0027        1.25       0.092
  WS02006287           JUNCTION      0.00   330.08     0  02:14           0        1.24       0.058
  WSF200               JUNCTION      0.00   612.81     0  02:29           0        7.59       0.056
  HS02004901           JUNCTION     17.80    17.80     0  02:08      0.0469       0.047       3.884
  HS02004881           JUNCTION      7.27    64.88     0  02:15      0.0205       0.219       0.178
  HS02004876           JUNCTION     11.80    58.23     0  02:15      0.0393       0.199       0.270
  HS02004870           JUNCTION     12.92    46.63     0  02:14      0.0387       0.159       0.067
  HS02004862           JUNCTION     10.74    34.47     0  02:15      0.0445       0.121       0.140
  HS02004856           JUNCTION      9.59    23.80     0  02:14      0.0291      0.0779       1.886
  HS02004852           JUNCTION      0.00    14.76     0  02:15           0      0.0488       0.109
  HS02004848           JUNCTION     21.95    21.95     0  02:18      0.0929      0.0929       0.047
  HS02004842           JUNCTION      0.00     7.98     0  02:27           0      0.0571      29.452
  HS02004837           JUNCTION     27.23    33.75     0  02:14       0.247       0.291       0.280
  HS02004830           JUNCTION      0.15    33.88     0  02:15     0.00423       0.281       0.441
  HS02004824           JUNCTION     24.95    58.52     0  02:18       0.122       0.401       0.134
  HS02004817           JUNCTION      0.60    59.11     0  02:18      0.0169       0.418       4.156
  HS02004807           JUNCTION     24.25    81.36     0  02:16      0.0712       0.472       0.903
  HS02004802           JUNCTION      0.00    81.95     0  02:17           0       0.468       0.874
  HS02004799           JUNCTION     18.77   212.18     0  02:12      0.0577       0.674       0.342
  HS02004792           JUNCTION     83.10   193.66     0  02:12       0.248       0.617       0.065
  HS02004788           JUNCTION     27.19   112.53     0  02:12       0.127        0.37       0.105
  HS02004785           JUNCTION      0.15    85.61     0  02:12     0.00423       0.245       0.199
  HS02004777           JUNCTION      0.03    85.92     0  02:11    0.000846       0.245       2.162
  HS02004770           JUNCTION     70.38    87.06     0  02:10         0.2       0.246       1.276
  HS02004480           JUNCTION      0.00   250.52     0  02:13           0       0.792       0.098
  HS02004479           JUNCTION      0.00    39.06     0  02:14           0        0.13       0.565
  HS02004478           JUNCTION      0.00   330.06     0  02:14           0        1.24       0.047
  YS02001745           JUNCTION    135.38   157.69     0  03:52        1.34        1.35       0.676
  YS02001748           JUNCTION      0.04   278.27     0  02:57     0.00127        1.35       1.715
  YS02001751           JUNCTION      0.01   392.47     0  03:04     0.00031        1.32       1.783
  YS02001754           JUNCTION      0.26   219.56     0  02:40     0.00733         1.3       1.887
  YS02001762           JUNCTION      0.00   192.59     0  02:41           0        1.47       1.449
  YS02001765           JUNCTION      0.00   194.85     0  02:30           0        1.47       1.683
  YS02001767           JUNCTION      0.54   193.88     0  02:42      0.0151        1.49       2.447
  YS02001770           JUNCTION    171.71   202.85     0  02:24        1.54        1.56       2.036
  YS02001774           JUNCTION      0.00    60.83     0  02:23           0      0.0769      48.588
  YS02001779           JUNCTION      0.01    59.31     0  02:23    0.000141      0.0321      85.106
  YS02001882           JUNCTION      0.00    16.74     0  02:51           0      0.0125      17.918
  YS02001884           JUNCTION      0.00    17.11     0  02:08           0      0.0389      16.010
  YS02001759           JUNCTION    167.10   359.88     0  02:41        1.43        2.86       0.798
  YS02001887           JUNCTION    217.39   226.56     0  02:51        1.68         1.7       0.455
  YS02001890           JUNCTION      0.00   230.49     0  02:52           0        1.66       0.507
  YS02001898           JUNCTION      0.00   224.35     0  02:40           0        1.65       0.160
  YS02001901           JUNCTION      0.00   231.27     0  02:49           0        1.65       0.368
  YS02001904           JUNCTION      0.00   237.78     0  02:43           0        1.65       0.342
  YS02001907           JUNCTION      0.00   435.09     0  02:52           0        3.57       0.650
  YS02001910           JUNCTION      0.00   211.53     0  03:06           0        1.94       0.559
  YS02001915           JUNCTION    120.46   192.68     0  02:51        1.14        1.94       0.266
  YS02001918           JUNCTION      0.00    66.75     0  02:55           0       0.807       0.180
  YS02001619           JUNCTION    117.38   117.38     0  02:55        1.13        1.13       1.030
  YS02001629           JUNCTION      0.00   231.37     0  03:00           0        1.05       2.677
  YS02001641           JUNCTION      0.00   286.80     0  02:41           0        2.28       0.924
  YS02001644           JUNCTION    128.79   411.24     0  02:41        1.29        3.54       0.737
  YS02001652           JUNCTION      0.00   212.17     0  02:55           0        1.18       1.945
  YS02001655           JUNCTION      0.15   367.32     0  03:03     0.00434        1.21       1.909
  YS02001920           JUNCTION      2.87    61.89     0  03:01      0.0809        0.81       0.300
  YS02001923           JUNCTION      0.04    59.02     0  03:01     0.00106       0.729       0.054
  YS02001926           JUNCTION      0.05    59.08     0  03:01     0.00147       0.731       0.372
  YS02001929           JUNCTION     59.05    59.05     0  03:01        0.73        0.73       0.053
  YS02001658           JUNCTION      0.00   466.61     0  03:36           0        1.32       1.241
  YS02001661           JUNCTION      0.00   372.08     0  03:35           0        1.78       0.786
  YS02001664           JUNCTION    154.92   287.70     0  04:45        1.24        1.68       0.253
  YS02001622           JUNCTION      0.00   170.68     0  03:01           0        1.11       2.891
  YS02001633           JUNCTION    131.02   291.30     0  02:26        1.33        2.34       1.385
  YS02001649           JUNCTION      0.00   626.00     0  02:41           0        4.63       0.795
  YS02001757           JUNCTION      0.00  1130.35     0  02:41           0        8.67       1.064
  YS02001895           JUNCTION      0.00   225.46     0  02:40           0        1.65       0.254
  YS02001625           JUNCTION      0.00   231.78     0  03:00           0        1.08       3.682
  YS02163301           JUNCTION      0.00   176.14     0  02:26           0        1.04       2.331
  YS02163601           JUNCTION      0.11   291.59     0  02:26      0.0031        2.29       1.317
  YS02164001           JUNCTION      0.00   289.92     0  02:26           0        2.28       0.874
  YS02001647           JUNCTION      0.00   410.88     0  02:41           0         3.5       0.797
  YSB1154              JUNCTION     20.99    20.99     0  02:12        0.07      0.0712       2.068
  YSB6556              JUNCTION      0.00    21.01     0  02:14           0      0.0721       1.761
  YSB1174              JUNCTION     20.11    20.11     0  02:07      0.0508      0.0517       2.543
  YSB1171              JUNCTION      0.00    38.90     0  02:13           0       0.129       5.138
  YS02006553           JUNCTION      0.00   424.37     0  02:51           0        3.56       0.406
  YS02006561           JUNCTION      0.00   639.96     0  02:52           0        5.04      -0.002
  YS02006556           JUNCTION      0.00   421.14     0  02:52           0        3.57       0.301
  YS02006558           JUNCTION    184.83   614.14     0  02:51        1.53        5.07       0.110
  YS02001783           JUNCTION      0.00   602.41     0  02:51           0        5.04       0.037
  YS02001784           JUNCTION      1.06   594.34     0  02:52      0.0299        5.07       0.059
  YS02001786           JUNCTION      0.06   589.79     0  02:52     0.00159        5.07       0.057
  YS02001788           JUNCTION      0.07   588.16     0  02:52       0.002        5.07       0.034
  YS02001790           JUNCTION      0.15   588.43     0  02:53     0.00437        5.07       0.039
  YS02001791           JUNCTION      0.00   586.47     0  02:53           0        5.07       0.020
  YS02001793           JUNCTION      0.00   638.03     0  02:53           0        5.07       0.004
  WS02004139           JUNCTION      0.32   380.45     0  01:00     0.00905        6.76       0.485
  WSC                  OUTFALL       0.00   919.99     0  02:28           0        14.8       0.000
  3                    OUTFALL       0.00   530.41     0  02:30           0        3.85       0.000
  4                    OUTFALL       0.00   205.47     0  02:18           0         0.8       0.000
  5                    OUTFALL       0.00     0.00     0  00:00           0           0       0.000 ltr
  JK-storage           STORAGE       0.00  1096.86     0  02:54           0        5.22     -10.114
  CC-storage           STORAGE       0.00  1130.64     0  02:41           0        8.57       0.178
  XR-storage           STORAGE     418.12   418.12     0  02:54         7.9         8.5      -0.001
  
  
  **********************
  Node Surcharge Summary
  **********************
  
  Surcharging occurs when water rises above the top of the highest conduit.
  ---------------------------------------------------------------------
                                               Max. Height   Min. Depth
                                   Hours       Above Crown    Below Rim
  Node                 Type      Surcharged         Meters       Meters
  ---------------------------------------------------------------------
  WS02004404           JUNCTION        0.23          0.018        2.762
  WS02004405           JUNCTION        0.14          0.007        2.793
  WS02006109           JUNCTION        2.60          0.278        1.542
  WS02006110           JUNCTION        0.54          0.095        1.755
  WS02006112           JUNCTION        0.67          0.191        1.489
  WS02006230           JUNCTION        0.26          0.151        1.419
  WS02006231           JUNCTION        0.42          0.219        1.311
  WS02006232           JUNCTION        2.94          0.380        1.100
  WS02006234           JUNCTION        0.56          0.306        0.934
  WS02006235           JUNCTION        1.85          0.283        1.007
  WS02006238           JUNCTION        2.39          0.298        1.132
  WS02006240           JUNCTION        0.53          0.278        1.112
  WS02006242           JUNCTION        1.83          0.326        0.494
  WS02006243           JUNCTION        0.40          0.497        0.273
  WS02006245           JUNCTION        0.01          0.108        0.742
  WS02006247           JUNCTION        0.01          0.075        0.685
  WS02006239           JUNCTION        1.09          0.320        0.970
  WS02006252           JUNCTION        3.24          0.193        0.907
  WS02006228           JUNCTION        2.43          0.338        1.862
  YS02001748           JUNCTION        3.61          0.150        1.040
  YS02001751           JUNCTION        4.44          1.016        0.184
  YS02001754           JUNCTION        5.07          0.984        0.166
  YS02001762           JUNCTION        5.49          0.944        0.206
  YS02001765           JUNCTION        5.46          0.896        0.204
  YS02001767           JUNCTION        5.34          0.866        0.164
  YS02001770           JUNCTION        5.25          0.907        0.013
  YS02001774           JUNCTION        5.49          1.004        0.046
  YS02001779           JUNCTION        5.06          0.680        0.000
  YS02001759           JUNCTION        5.50          0.970        0.240
  YS02001907           JUNCTION        0.13          0.032        0.918
  YS02001619           JUNCTION        4.31          0.541        0.069
  YS02001629           JUNCTION        4.36          0.470        0.000
  YS02001641           JUNCTION        5.47          0.932        0.168
  YS02001644           JUNCTION        5.47          0.920        0.000
  YS02001652           JUNCTION        5.13          1.066        0.064
  YS02001655           JUNCTION        4.54          1.200        0.000
  YS02001658           JUNCTION        3.60          1.070        0.230
  YS02001622           JUNCTION        4.44          0.521        0.099
  YS02001633           JUNCTION        5.45          0.921        0.139
  YS02001649           JUNCTION        5.49          0.955        0.095
  YS02001757           JUNCTION        5.54          1.071        0.139
  YS02001625           JUNCTION        5.20          0.780        0.000
  YS02163301           JUNCTION        5.34          0.880        0.150
  YS02163601           JUNCTION        5.48          0.991        0.089
  YS02164001           JUNCTION        5.46          0.923        0.177
  YS02001647           JUNCTION        5.17          0.740        0.160
  YS02006553           JUNCTION        0.42          0.057        1.133
  YS02001790           JUNCTION        0.34          0.264        0.893
  YS02001791           JUNCTION        0.39          0.384        1.536
  YS02001793           JUNCTION        0.54          1.245        1.355
  
  
  *********************
  Node Flooding Summary
  *********************
  
  Flooding refers to all water that overflows a node, whether it ponds or not.
  --------------------------------------------------------------------------
                                                             Total   Maximum
                                 Maximum   Time of Max       Flood    Ponded
                        Hours       Rate    Occurrence      Volume     Depth
  Node                 Flooded       LPS   days hr:min    10^6 ltr    Meters
  --------------------------------------------------------------------------
  YS02001779              0.01     20.06      0  03:04       0.000     0.000
  YS02001629              0.01      7.63      0  03:48       0.000     0.000
  YS02001644              0.01      5.19      0  04:53       0.000     0.000
  YS02001655              0.01    172.74      0  03:02       0.000     0.000
  YS02001625              0.04     16.58      0  04:50       0.001     0.000
  JK-storage              0.22    218.40      0  03:13       0.121     0.000
  XR-storage              2.02    303.05      0  03:10       0.882     0.000
  
  
  **********************
  Storage Volume Summary
  **********************
  
  --------------------------------------------------------------------------------------------------
                         Average     Avg  Evap Exfil       Maximum     Max    Time of Max    Maximum
                          Volume    Pcnt  Pcnt  Pcnt        Volume    Pcnt     Occurrence    Outflow
  Storage Unit           1000 m3    Full  Loss  Loss       1000 m3    Full    days hr:min        LPS
  --------------------------------------------------------------------------------------------------
  JK-storage               0.081      28     0     0         0.291     100       0  03:11     600.00
  CC-storage               2.522      16     0     0         3.541      23       0  04:49     400.00
  XR-storage               0.810      87     0     0         0.926     100       0  03:09     380.00
  
  
  ***********************
  Outfall Loading Summary
  ***********************
  
  -----------------------------------------------------------
                         Flow       Avg       Max       Total
                         Freq      Flow      Flow      Volume
  Outfall Node           Pcnt       LPS       LPS    10^6 ltr
  -----------------------------------------------------------
  WSC                   99.99    610.87    919.99      14.839
  3                     86.63    229.38    530.41       3.848
  4                     53.20     71.95    205.47       0.800
  5                      0.00      0.00      0.00       0.000
  -----------------------------------------------------------
  System                59.96    912.20   1640.85      19.487
  
  
  ********************
  Link Flow Summary
  ********************
  
  -----------------------------------------------------------------------------
                                 Maximum  Time of Max   Maximum    Max/    Max/
                                  |Flow|   Occurrence   |Veloc|    Full    Full
  Link                 Type          LPS  days hr:min     m/sec    Flow   Depth
  -----------------------------------------------------------------------------
  WS02003066WSF200     CONDUIT    612.81     0  02:29      2.80    0.10    0.25
  WS02006287WS02006284 CONDUIT    330.13     0  02:14      1.90    0.15    0.27
  WS02006284WS02006280 CONDUIT    330.26     0  02:15      2.14    0.14    0.25
  WS02006280WS02006229 CONDUIT    330.26     0  02:15      3.44    0.07    0.18
  WS02006229WS02006228 CONDUIT    637.57     0  02:17      1.27    2.11    1.00
  WS02006256WS02006235 CONDUIT    166.25     0  00:01      2.58    1.76    1.00
  WS02006253WS02006251 CONDUIT     73.07     0  02:19      0.58    0.22    0.99
  WS02006252WS02006251 CONDUIT    400.74     0  04:50      3.19    1.47    1.00
  WS02006251WS02006249 CONDUIT    471.71     0  02:19      1.30    1.36    0.95
  WS02006249WS02006248 CONDUIT    394.82     0  02:14      1.29    2.16    0.91
  WS02006248WS02006247 CONDUIT    386.39     0  02:15      1.26    0.84    0.97
  WS02006247WS02006245 CONDUIT    378.78     0  02:15      1.22    3.00    1.00
  WS02006245WS02006243 CONDUIT    365.54     0  02:15      1.26    1.08    1.00
  WS02006243WS02006242 CONDUIT    344.36     0  02:16      1.05    0.74    1.00
  WS02006242WS02006240 CONDUIT    327.43     0  04:52      0.95    1.30    1.00
  WS02006240WS02006239 CONDUIT    317.20     0  04:52      0.99    1.00    1.00
  WS02006239WS02006238 CONDUIT    316.61     0  07:50      0.87    1.01    1.00
  WS02006238WS02006235 CONDUIT    316.72     0  07:45      1.25    0.71    1.00
  WS02006235WS02006234 CONDUIT    393.24     0  04:03      1.04    4.15    1.00
  WS02006234WS02006232 CONDUIT    390.73     0  04:03      1.13    0.79    1.00
  WS02006232WS02006231 CONDUIT    390.62     0  04:03      1.07    0.82    1.00
  WS02006231WS02006230 CONDUIT    389.72     0  04:19      1.35    5.91    1.00
  WS02006230WS02006229 CONDUIT    400.02     0  04:20      1.04    8.90    1.00
  WS02006228WS02006109 CONDUIT    637.49     0  02:17      1.27    2.79    1.00
  WS02006116WS02004401 CONDUIT    617.89     0  02:24      0.87    0.85    0.91
  WS02006115WS02006116 CONDUIT    618.86     0  02:24      0.98    0.79    0.83
  WS02006113WS02006111 CONDUIT    660.21     0  02:18      2.60    0.79    0.50
  WS02006112WS02006115 CONDUIT    656.12     0  02:18      0.91    0.39    0.91
  WS02006111WS02006112 CONDUIT    632.81     0  02:18      1.72    0.30    0.69
  WS02006110WS02006113 CONDUIT    641.36     0  02:17      1.48    0.58    0.81
  WS02006109WS02006110 CONDUIT    638.88     0  02:17      1.27    1.23    1.00
  WS02004411WS02004412 CONDUIT    612.81     0  02:28      0.99    0.87    0.74
  WS02004401WS02004402 CONDUIT    618.17     0  02:25      0.82    0.74    0.93
  WS02004413WS02003067 CONDUIT    612.79     0  02:29      1.20    0.26    0.62
  WS02004412WS02004413 CONDUIT    612.93     0  02:28      0.89    0.41    0.82
  WS02004410WS02004411 CONDUIT    613.32     0  02:26      1.00    0.84    0.73
  WS02004409WS02004410 CONDUIT    614.06     0  02:26      1.05    0.79    0.72
  WS02004407WS02004409 CONDUIT    616.13     0  02:26      1.59    0.22    0.52
  WS02004406WS02004407 CONDUIT    616.43     0  02:26      1.13    0.28    0.66
  WS02004405WS02004406 CONDUIT    617.49     0  02:25      0.79    1.22    1.00
  WS02004404WS02004405 CONDUIT    617.31     0  02:25      0.84    6.05    1.00
  WS02004403WS02004404 CONDUIT    617.23     0  02:25      0.79    0.45    0.98
  WS02004402WS02004403 CONDUIT    617.56     0  02:25      0.80    0.89    0.95
  WS02004139WS02001211 CONDUIT    380.45     0  05:20      0.81    0.48    0.59
  WS02004138WS02004139 CONDUIT    380.13     0  01:00      3.33    0.08    0.43
  WS02003067WS02003066 CONDUIT    612.81     0  02:29      1.30    0.20    0.43
  WS02001213WS02003059 CONDUIT    389.00     0  05:20      0.80    0.64    0.74
  WS02001212WS02001213 CONDUIT    388.44     0  05:20      1.32    0.60    0.45
  WS02001211WS02001212 CONDUIT    388.06     0  05:20      0.78    0.30    0.63
  WS02003072WS02003073 CONDUIT    917.65     0  02:27      1.71    1.98    0.48
  WS02003069WS02003072 CONDUIT    917.28     0  02:27      1.61    0.44    0.50
  WS02003060WS02003069 CONDUIT    917.09     0  02:26      1.86    0.36    0.45
  WS02003059WS02003060 CONDUIT    389.67     0  05:20      0.95    0.25    0.65
  HS02004901HS02004770 CONDUIT     16.87     0  02:11      0.06    0.06    0.38
  HS02004876HS02004881 CONDUIT     58.22     0  02:15      0.83    0.62    0.10
  HS02004870HS02004876 CONDUIT     46.60     0  02:15      0.57    0.03    0.12
  HS02004842HS02004848 CONDUIT      7.98     0  02:27      0.04    0.00    0.29
  HS02004837HS02004842 CONDUIT      8.26     0  02:28      0.41    0.00    0.31
  HS02004830HS02004837 CONDUIT     33.73     0  02:15      0.51    0.03    0.09
  HS02004824HS02004830 CONDUIT     33.87     0  02:16      0.55    0.04    0.09
  HS02004817HS02004824 CONDUIT     58.51     0  02:18      0.19    0.03    0.44
  HS02004770HS02004777 CONDUIT     85.89     0  02:11      0.31    0.16    0.40
  HS02004799HS02004480 CONDUIT    211.89     0  02:12      0.75    0.27    0.40
  HS02004792HS02004799 CONDUIT    193.55     0  02:12      0.86    0.12    0.32
  HS02004788HS02004792 CONDUIT    112.44     0  02:13      0.99    0.07    0.16
  HS02004785HS02004788 CONDUIT     85.52     0  02:13      0.65    0.64    0.19
  HS02004777HS02004785 CONDUIT     85.46     0  02:12      0.37    0.11    0.33
  HS02004480HS02004478 CONDUIT    250.51     0  02:13      1.17    1.06    0.31
  HS02004479HS02004480 CONDUIT     39.34     0  02:15      0.15    0.04    0.39
  HS02004862HS02004870 CONDUIT     34.44     0  02:16      0.58    0.04    0.09
  HS02004848HS02004852 CONDUIT     14.76     0  02:15      0.39    0.02    0.05
  HS02004856HS02004862 CONDUIT     23.76     0  02:15      0.43    0.02    0.08
  HS02004852HS02004856 CONDUIT     14.72     0  02:16      0.19    0.02    0.11
  HS02004802HS02004478 CONDUIT     82.62     0  02:18      0.38    0.07    0.32
  HS02004478WS02006287 CONDUIT    330.08     0  02:14      1.60    0.09    0.23
  HS02004817HS02004807 CONDUIT     60.08     0  02:20      0.15    0.04    0.58
  HS02004807HS02004802 CONDUIT     81.95     0  02:17      0.32    0.16    0.37
  YS02001759YS02001757 CONDUIT    360.20     0  02:41      0.46    0.26    1.00
  YS02001762YS02001759 CONDUIT    193.89     0  03:02      0.25    0.22    1.00
  YS02001765YS02001762 CONDUIT    192.59     0  02:41      0.25    0.18    1.00
  YS02001770YS02001767 CONDUIT    193.34     0  02:42      0.31    0.77    1.00
  YS02001774YS02001770 CONDUIT     60.83     0  02:23      0.15    0.04    1.00
  YS02001779YS02001774 CONDUIT     59.31     0  02:23      0.08    0.03    1.00
  YS02001649YS02001757 CONDUIT    626.62     0  02:41      0.80    0.38    1.00
  YS02001767YS02001765 CONDUIT    194.85     0  02:30      0.26    0.25    1.00
  YS02006561YS02001783 CONDUIT    602.41     0  02:51      2.09    0.31    0.63
  YS02001783YS02001784 CONDUIT    593.28     0  02:52      1.53    0.82    0.94
  YS02001784YS02001785 CONDUIT    589.73     0  02:52      1.64    1.37    0.97
  YS02001788YS02001790 CONDUIT    588.28     0  02:53      2.17    0.43    0.98
  YS02001790YS02001791 CONDUIT    586.47     0  02:53      2.59    0.64    1.00
  YS02001791YS02001793 CONDUIT    619.91     0  02:55      5.30    0.27    1.00
  YS02001910YS02001907 CONDUIT    207.57     0  02:52      0.49    0.12    0.90
  YS02001786YS02001788 CONDUIT    588.09     0  02:52      2.09    1.13    0.96
  YS02001915YS02001910 CONDUIT    211.53     0  03:06      0.45    0.11    0.69
  YS02001918YS02001915 CONDUIT     72.26     0  02:51      0.44    0.04    0.41
  YS02001923YS02001920 CONDUIT     59.02     0  03:01      0.56    0.03    0.21
  YS02001926YS02001923 CONDUIT     58.99     0  03:01      0.63    0.08    0.18
  YS02001929YS02001926 CONDUIT     59.02     0  03:01      0.68    0.03    0.17
  YS02001920YS02001918 CONDUIT     66.75     0  02:55      0.56    0.06    0.28
  YS02001629YS02163301 CONDUIT    176.14     0  02:26      0.22    0.22    1.00
  YS02001619YS02001622 CONDUIT    170.68     0  03:01      0.74    0.25    1.00
  YS02001622YS02001625 CONDUIT    231.78     0  03:00      0.31    0.12    1.00
  YS02001625YS02001629 CONDUIT    231.37     0  03:00      0.30    0.11    1.00
  YS02163301YS02001633 CONDUIT    180.13     0  02:26      0.23    0.17    1.00
  YS02163601YS02164001 CONDUIT    289.92     0  02:26      0.37    0.26    1.00
  YS02164001YS02001641 CONDUIT    286.80     0  02:41      0.37    0.39    1.00
  YS02001641YS02001644 CONDUIT    286.64     0  02:41      0.36    0.93    1.00
  YS02001647YS02001649 CONDUIT    436.06     0  02:26      0.57    0.23    1.00
  YS02006553YS02006556 CONDUIT    421.14     0  02:52      0.54    0.36    0.98
  YS02006556YS02006558 CONDUIT    432.22     0  02:58      0.55    0.34    1.00
  YSB6556YSB1171       CONDUIT     21.39     0  02:15      0.08    0.02    0.66
  YS02001907YS02006553 CONDUIT    424.37     0  02:51      0.47    0.50    1.00
  YS02006558YS02006561 CONDUIT    639.96     0  02:52      3.04    1.41    0.71
  YS02001633YS02163601 CONDUIT    291.48     0  02:26      0.37    0.31    1.00
  YS02001644YS02001647 CONDUIT    410.88     0  02:41      0.52    0.24    1.00
  YS02001745YS02001748 CONDUIT    270.53     0  02:57      1.58    0.10    0.90
  YS02001748YS02001751 CONDUIT    392.46     0  03:04      1.22    0.20    1.00
  YS02001751YS02001754 CONDUIT    219.30     0  02:40      1.04    0.11    1.00
  YS02001754YS02001757 CONDUIT    212.17     0  02:59      0.33    0.09    1.00
  YS02001882YS02001884 CONDUIT     16.80     0  02:51      0.06    0.02    0.63
  YS02001884YS02001887 CONDUIT     17.11     0  02:08      0.07    0.02    0.73
  YS02001890YS02001895 CONDUIT    225.46     0  02:40      0.39    0.11    0.69
  YS02001895YS02001898 CONDUIT    224.35     0  02:40      0.51    0.39    0.56
  YS02001898YS02001901 CONDUIT    231.27     0  02:49      0.45    0.15    0.64
  YS02001901YS02001904 CONDUIT    237.78     0  02:43      0.42    0.37    0.69
  YS02001904YS02001907 CONDUIT    245.97     0  02:43      0.35    0.09    0.84
  YS02001887YS02001890 CONDUIT    230.49     0  02:52      0.35    0.39    0.78
  YS02001652YS02001649 CONDUIT    216.67     0  02:55      0.34    0.11    1.00
  YS02001655YS02001652 CONDUIT    212.17     0  02:55      1.10    0.10    1.00
  YS02001658YS02001655 CONDUIT    367.17     0  03:03      1.41    0.16    1.00
  YS02001661YS02001658 CONDUIT    466.61     0  03:36      1.66    0.18    0.96
  YS02001664YS02001661 CONDUIT    324.22     0  04:45      1.45    0.10    0.64
  YSB1154YSB6556       CONDUIT     21.01     0  02:14      0.19    0.04    0.55
  YSB1174YSB1171       CONDUIT     18.73     0  02:10      0.07    0.03    0.66
  YSB1171HS02004479    CONDUIT     39.06     0  02:14      0.54    0.03    0.52
  HS02004881HS02006253 CONDUIT     64.88     0  02:15      2.02    0.01    0.30
  YS02001793JiankangQianchi CONDUIT   1096.86     0  02:54     12.66    0.09    1.00
  YS02001757CaochengTiaoxuchi CONDUIT   1130.64     0  02:41      2.30    0.50    1.00
  WSF200WS02003060     CONDUIT    613.95     0  02:29      1.80    0.14    0.35
  1                    CONDUIT    919.99     0  02:28      3.25    0.32    0.39
  2                    CONDUIT    205.47     0  02:18      5.88    0.49    0.50
  3                    CONDUIT    530.41     0  02:30     10.19    0.85    0.71
  4                    CONDUIT      0.00     0  00:00      0.00    0.00    0.00
  CC-Pump-1            PUMP       200.00     0  02:13              1.00
  CC-Pump-2            PUMP       200.00     0  02:13              1.00
  JK-Pump-1            PUMP       300.00     0  02:30              1.00
  JK-Pump-2            PUMP       300.00     0  00:00              1.00
  XR-Pump-1            PUMP        95.00     0  00:00              1.00
  XR-Pump-2            PUMP        95.00     0  00:00              1.00
  XR-Pump-3            PUMP        95.00     0  01:00              1.00
  XR-Pump-4            PUMP        95.00     0  00:00              1.00
  
  
  ***************************
  Flow Classification Summary
  ***************************
  
  -------------------------------------------------------------------------------------
                      Adjusted    ---------- Fraction of Time in Flow Class ---------- 
                       /Actual         Up    Down  Sub   Sup   Up    Down  Norm  Inlet 
  Conduit               Length    Dry  Dry   Dry   Crit  Crit  Crit  Crit  Ltd   Ctrl  
  -------------------------------------------------------------------------------------
  WS02003066WSF200        1.00   0.04  0.01  0.00  0.00  0.94  0.00  0.00  0.67  0.00
  WS02006287WS02006284    1.00   0.04  0.01  0.00  0.64  0.30  0.00  0.00  0.75  0.00
  WS02006284WS02006280    1.00   0.04  0.00  0.00  0.00  0.00  0.00  0.96  0.00  0.00
  WS02006280WS02006229    1.00   0.04  0.00  0.00  0.00  0.00  0.00  0.96  0.00  0.00
  WS02006229WS02006228    1.00   0.00  0.00  0.00  0.99  0.00  0.00  0.01  0.00  0.00
  WS02006256WS02006235    1.00   0.00  0.00  0.00  1.00  0.00  0.00  0.00  0.00  0.00
  WS02006253WS02006251    1.00   0.03  0.01  0.00  0.96  0.00  0.00  0.00  0.00  0.00
  WS02006252WS02006251    1.00   0.08  0.00  0.00  0.00  0.00  0.92  0.00  0.00  0.00
  WS02006251WS02006249    1.00   0.00  0.00  0.00  1.00  0.00  0.00  0.00  0.25  0.00
  WS02006249WS02006248    1.00   0.00  0.02  0.00  0.91  0.00  0.06  0.00  0.00  0.00
  WS02006248WS02006247    1.00   0.02  0.00  0.00  0.98  0.00  0.00  0.00  0.15  0.00
  WS02006247WS02006245    1.00   0.02  0.00  0.00  0.98  0.00  0.00  0.00  0.00  0.00
  WS02006245WS02006243    1.00   0.01  0.00  0.00  0.94  0.00  0.00  0.05  0.01  0.00
  WS02006243WS02006242    1.00   0.01  0.00  0.00  0.99  0.00  0.00  0.00  0.25  0.00
  WS02006242WS02006240    1.00   0.00  0.00  0.00  1.00  0.00  0.00  0.00  0.00  0.00
  WS02006240WS02006239    1.00   0.00  0.00  0.00  0.96  0.00  0.00  0.04  0.01  0.00
  WS02006239WS02006238    1.00   0.00  0.00  0.00  1.00  0.00  0.00  0.00  0.00  0.00
  WS02006238WS02006235    1.00   0.00  0.00  0.00  1.00  0.00  0.00  0.00  0.00  0.00
  WS02006235WS02006234    1.00   0.00  0.00  0.00  0.96  0.00  0.04  0.00  0.00  0.00
  WS02006234WS02006232    1.00   0.00  0.00  0.00  1.00  0.00  0.00  0.00  0.04  0.00
  WS02006232WS02006231    1.00   0.00  0.00  0.00  0.99  0.00  0.00  0.00  0.00  0.00
  WS02006231WS02006230    1.00   0.00  0.00  0.00  0.70  0.00  0.30  0.00  0.00  0.00
  WS02006230WS02006229    1.00   0.00  0.00  0.00  0.99  0.00  0.00  0.01  0.00  0.00
  WS02006228WS02006109    1.00   0.00  0.00  0.00  1.00  0.00  0.00  0.00  0.00  0.00
  WS02006116WS02004401    1.00   0.03  0.00  0.00  0.97  0.00  0.00  0.00  0.00  0.00
  WS02006115WS02006116    1.00   0.03  0.00  0.00  0.97  0.00  0.00  0.01  0.00  0.00
  WS02006113WS02006111    1.00   0.02  0.00  0.00  0.00  0.98  0.00  0.00  0.11  0.00
  WS02006112WS02006115    1.00   0.02  0.00  0.00  0.97  0.00  0.00  0.00  0.00  0.00
  WS02006111WS02006112    1.00   0.02  0.00  0.00  0.98  0.00  0.00  0.00  0.96  0.00
  WS02006110WS02006113    1.00   0.01  0.01  0.00  0.98  0.00  0.00  0.00  0.00  0.00
  WS02006109WS02006110    1.00   0.00  0.01  0.00  0.98  0.00  0.01  0.00  0.00  0.00
  WS02004411WS02004412    1.00   0.04  0.00  0.00  0.96  0.00  0.00  0.00  0.00  0.00
  WS02004401WS02004402    1.00   0.03  0.00  0.00  0.97  0.00  0.00  0.00  0.00  0.00
  WS02004413WS02003067    1.00   0.04  0.01  0.00  0.00  0.00  0.95  0.00  0.00  0.00
  WS02004412WS02004413    1.00   0.04  0.00  0.00  0.96  0.00  0.00  0.00  0.03  0.00
  WS02004410WS02004411    1.00   0.04  0.00  0.00  0.96  0.00  0.00  0.00  0.04  0.00
  WS02004409WS02004410    1.00   0.04  0.00  0.00  0.96  0.00  0.00  0.00  0.03  0.00
  WS02004407WS02004409    1.00   0.04  0.00  0.00  0.96  0.00  0.00  0.00  0.89  0.00
  WS02004406WS02004407    1.00   0.00  0.04  0.00  0.96  0.00  0.00  0.00  0.00  0.00
  WS02004405WS02004406    1.00   0.00  0.00  0.00  1.00  0.00  0.00  0.00  0.01  0.00
  WS02004404WS02004405    1.00   0.00  0.00  0.00  1.00  0.00  0.00  0.00  0.00  0.00
  WS02004403WS02004404    1.00   0.00  0.03  0.00  0.97  0.00  0.00  0.00  0.01  0.00
  WS02004402WS02004403    1.00   0.03  0.00  0.00  0.97  0.00  0.00  0.00  0.00  0.00
  WS02004139WS02001211    1.00   0.00  0.00  0.00  1.00  0.00  0.00  0.00  0.00  0.00
  WS02004138WS02004139    1.00   0.00  0.00  0.00  0.99  0.01  0.00  0.00  1.00  0.00
  WS02003067WS02003066    1.00   0.05  0.00  0.00  0.94  0.00  0.00  0.00  0.00  0.00
  WS02001213WS02003059    1.00   0.00  0.00  0.00  0.99  0.00  0.00  0.00  0.00  0.00
  WS02001212WS02001213    1.00   0.00  0.00  0.00  0.86  0.00  0.14  0.00  0.00  0.00
  WS02001211WS02001212    1.00   0.00  0.00  0.00  1.00  0.00  0.00  0.00  0.00  0.00
  WS02003072WS02003073    1.00   0.00  0.00  0.00  0.00  0.00  0.00  1.00  0.00  0.00
  WS02003069WS02003072    1.00   0.00  0.00  0.00  0.99  0.01  0.00  0.00  0.24  0.00
  WS02003060WS02003069    1.00   0.00  0.00  0.00  0.98  0.02  0.00  0.00  0.15  0.00
  WS02003059WS02003060    1.00   0.00  0.00  0.00  1.00  0.00  0.00  0.00  0.01  0.00
  HS02004901HS02004770    1.00   0.04  0.00  0.00  0.96  0.00  0.00  0.00  0.02  0.00
  HS02004876HS02004881    1.00   0.02  0.00  0.00  0.96  0.02  0.00  0.00  0.00  0.00
  HS02004870HS02004876    1.00   0.00  0.00  0.00  0.99  0.00  0.00  0.00  0.95  0.00
  HS02004842HS02004848    1.00   0.00  0.04  0.00  0.96  0.00  0.00  0.00  0.66  0.00
  HS02004837HS02004842    1.00   0.00  0.00  0.00  0.99  0.01  0.00  0.00  0.11  0.00
  HS02004830HS02004837    1.00   0.00  0.00  0.00  1.00  0.00  0.00  0.00  0.99  0.00
  HS02004824HS02004830    1.00   0.00  0.00  0.00  1.00  0.00  0.00  0.00  0.00  0.00
  HS02004817HS02004824    1.00   0.00  0.00  0.00  1.00  0.00  0.00  0.00  1.00  0.00
  HS02004770HS02004777    1.00   0.00  0.04  0.00  0.96  0.00  0.00  0.00  0.06  0.00
  HS02004799HS02004480    1.00   0.00  0.02  0.00  0.94  0.00  0.03  0.00  0.00  0.00
  HS02004792HS02004799    1.00   0.00  0.00  0.00  0.99  0.01  0.00  0.00  0.98  0.00
  HS02004788HS02004792    1.00   0.00  0.00  0.00  0.99  0.01  0.00  0.00  0.98  0.00
  HS02004785HS02004788    1.00   0.00  0.00  0.00  1.00  0.00  0.00  0.00  0.00  0.00
  HS02004777HS02004785    1.00   0.00  0.00  0.00  1.00  0.00  0.00  0.00  0.19  0.00
  HS02004480HS02004478    1.00   0.05  0.00  0.00  0.71  0.00  0.00  0.25  0.00  0.00
  HS02004479HS02004480    1.00   0.03  0.00  0.00  0.97  0.00  0.00  0.00  0.15  0.00
  HS02004862HS02004870    1.00   0.00  0.00  0.00  1.00  0.00  0.00  0.00  0.06  0.00
  HS02004848HS02004852    1.00   0.04  0.00  0.00  0.96  0.00  0.00  0.00  0.71  0.00
  HS02004856HS02004862    1.00   0.00  0.06  0.00  0.94  0.00  0.00  0.00  0.75  0.00
  HS02004852HS02004856    1.00   0.04  0.01  0.00  0.95  0.00  0.00  0.00  0.83  0.00
  HS02004802HS02004478    1.00   0.04  0.00  0.00  0.95  0.00  0.00  0.00  0.01  0.00
  HS02004478WS02006287    1.00   0.05  0.00  0.00  0.81  0.14  0.00  0.00  0.72  0.00
  HS02004817HS02004807    1.00   0.00  0.04  0.00  0.96  0.00  0.00  0.00  0.00  0.00
  HS02004807HS02004802    1.00   0.04  0.00  0.00  0.95  0.00  0.00  0.00  0.01  0.00
  YS02001759YS02001757    1.00   0.00  0.00  0.00  1.00  0.00  0.00  0.00  0.17  0.00
  YS02001762YS02001759    1.00   0.00  0.00  0.00  1.00  0.00  0.00  0.00  0.04  0.00
  YS02001765YS02001762    1.00   0.00  0.00  0.00  1.00  0.00  0.00  0.00  0.21  0.00
  YS02001770YS02001767    1.00   0.00  0.00  0.00  1.00  0.00  0.00  0.00  0.00  0.00
  YS02001774YS02001770    1.00   0.00  0.05  0.00  0.95  0.00  0.00  0.00  0.06  0.00
  YS02001779YS02001774    1.00   0.00  0.00  0.00  1.00  0.00  0.00  0.00  0.25  0.00
  YS02001649YS02001757    1.00   0.00  0.00  0.00  1.00  0.00  0.00  0.00  0.19  0.00
  YS02001767YS02001765    1.00   0.00  0.00  0.00  1.00  0.00  0.00  0.00  0.01  0.00
  YS02006561YS02001783    1.00   0.07  0.00  0.00  0.06  0.88  0.00  0.00  0.60  0.00
  YS02001783YS02001784    1.00   0.00  0.07  0.00  0.93  0.00  0.00  0.00  0.00  0.00
  YS02001784YS02001785    1.00   0.00  0.00  0.00  1.00  0.00  0.00  0.00  0.24  0.00
  YS02001788YS02001790    1.00   0.00  0.00  0.00  0.15  0.85  0.00  0.00  0.65  0.00
  YS02001790YS02001791    1.00   0.00  0.00  0.00  0.11  0.89  0.00  0.00  0.63  0.00
  YS02001791YS02001793    1.00   0.00  0.00  0.00  0.14  0.86  0.00  0.00  0.02  0.00
  YS02001910YS02001907    1.00   0.00  0.00  0.00  0.97  0.00  0.00  0.02  0.13  0.00
  YS02001786YS02001788    1.00   0.00  0.00  0.00  0.13  0.87  0.00  0.00  0.00  0.00
  YS02001915YS02001910    1.00   0.00  0.00  0.00  0.99  0.01  0.00  0.00  0.23  0.00
  YS02001918YS02001915    1.00   0.00  0.01  0.00  0.98  0.01  0.00  0.00  0.65  0.00
  YS02001923YS02001920    1.00   0.00  0.00  0.00  1.00  0.00  0.00  0.00  1.00  0.00
  YS02001926YS02001923    1.00   0.00  0.03  0.00  0.00  0.00  0.97  0.00  0.00  0.00
  YS02001929YS02001926    1.00   0.00  0.04  0.00  0.96  0.00  0.00  0.00  0.87  0.00
  YS02001920YS02001918    1.00   0.00  0.01  0.00  0.99  0.00  0.00  0.00  0.00  0.00
  YS02001629YS02163301    1.00   0.06  0.00  0.00  0.94  0.00  0.00  0.00  0.00  0.00
  YS02001619YS02001622    1.00   0.04  0.00  0.00  0.96  0.00  0.00  0.00  0.00  0.00
  YS02001622YS02001625    1.00   0.04  0.00  0.00  0.96  0.00  0.00  0.00  0.12  0.00
  YS02001625YS02001629    1.00   0.04  0.02  0.00  0.92  0.00  0.01  0.00  0.00  0.00
  YS02163301YS02001633    1.00   0.00  0.06  0.00  0.94  0.00  0.00  0.00  0.00  0.00
  YS02163601YS02164001    1.00   0.00  0.04  0.00  0.96  0.00  0.00  0.00  0.00  0.00
  YS02164001YS02001641    1.00   0.01  0.03  0.00  0.96  0.00  0.00  0.00  0.07  0.00
  YS02001641YS02001644    1.00   0.00  0.01  0.00  0.99  0.00  0.00  0.00  0.00  0.00
  YS02001647YS02001649    1.00   0.00  0.06  0.00  0.94  0.00  0.00  0.00  0.01  0.00
  YS02006553YS02006556    1.00   0.01  0.00  0.00  0.99  0.00  0.00  0.00  0.03  0.00
  YS02006556YS02006558    1.00   0.00  0.00  0.00  1.00  0.00  0.00  0.00  0.00  0.00
  YSB6556YSB1171          1.00   0.03  0.01  0.00  0.96  0.00  0.00  0.00  0.00  0.00
  YS02001907YS02006553    1.00   0.00  0.02  0.00  0.98  0.00  0.00  0.00  0.00  0.00
  YS02006558YS02006561    1.00   0.07  0.00  0.00  0.00  0.93  0.00  0.00  0.57  0.00
  YS02001633YS02163601    1.00   0.00  0.01  0.00  0.99  0.00  0.00  0.00  0.19  0.00
  YS02001644YS02001647    1.00   0.00  0.06  0.00  0.94  0.00  0.00  0.00  0.00  0.00
  YS02001745YS02001748    1.00   0.00  0.00  0.00  0.90  0.00  0.00  0.09  0.06  0.00
  YS02001748YS02001751    1.00   0.00  0.00  0.00  0.98  0.02  0.00  0.00  0.22  0.00
  YS02001751YS02001754    1.00   0.00  0.00  0.00  0.93  0.00  0.00  0.07  0.01  0.00
  YS02001754YS02001757    1.00   0.00  0.00  0.00  0.99  0.01  0.00  0.00  0.25  0.00
  YS02001882YS02001884    1.00   0.05  0.00  0.00  0.94  0.00  0.00  0.00  0.00  0.00
  YS02001884YS02001887    1.00   0.03  0.01  0.00  0.96  0.00  0.00  0.00  0.00  0.00
  YS02001890YS02001895    1.00   0.00  0.06  0.00  0.94  0.00  0.00  0.00  0.00  0.00
  YS02001895YS02001898    1.00   0.06  0.00  0.00  0.93  0.00  0.01  0.00  0.00  0.00
  YS02001898YS02001901    1.00   0.06  0.00  0.00  0.94  0.00  0.00  0.00  0.02  0.00
  YS02001901YS02001904    1.00   0.06  0.00  0.00  0.94  0.00  0.00  0.00  0.00  0.00
  YS02001904YS02001907    1.00   0.00  0.06  0.00  0.94  0.00  0.00  0.00  0.00  0.00
  YS02001887YS02001890    1.00   0.00  0.00  0.00  0.97  0.00  0.02  0.00  0.00  0.00
  YS02001652YS02001649    1.00   0.00  0.00  0.00  1.00  0.00  0.00  0.00  0.25  0.00
  YS02001655YS02001652    1.00   0.00  0.00  0.00  0.93  0.00  0.00  0.07  0.01  0.00
  YS02001658YS02001655    1.00   0.00  0.05  0.00  0.92  0.03  0.00  0.00  0.07  0.00
  YS02001661YS02001658    1.00   0.05  0.00  0.00  0.90  0.04  0.00  0.00  0.08  0.00
  YS02001664YS02001661    1.00   0.04  0.00  0.00  0.84  0.11  0.00  0.00  0.34  0.00
  YSB1154YSB6556          1.00   0.04  0.00  0.00  0.96  0.00  0.00  0.00  0.02  0.00
  YSB1174YSB1171          1.00   0.03  0.01  0.00  0.96  0.00  0.00  0.00  0.00  0.00
  YSB1171HS02004479       1.00   0.03  0.00  0.00  0.97  0.00  0.00  0.00  0.13  0.00
  HS02004881HS02006253    1.00   0.03  0.00  0.00  0.78  0.02  0.00  0.18  0.59  0.00
  YS02001793JiankangQianchi    1.00   0.00  0.00  0.00  0.56  0.44  0.00  0.00  0.37  0.00
  YS02001757CaochengTiaoxuchi    1.00   0.00  0.08  0.00  0.89  0.03  0.00  0.00  0.00  0.00
  WSF200WS02003060        1.00   0.00  0.04  0.00  0.66  0.29  0.00  0.00  0.31  0.00
  1                       1.00   0.00  0.00  0.00  0.00  1.00  0.00  0.00  0.38  0.00
  2                       1.00   0.46  0.00  0.00  0.00  0.53  0.00  0.00  0.10  0.00
  3                       1.00   0.13  0.00  0.00  0.00  0.87  0.00  0.00  0.32  0.00
  4                       1.00   1.00  0.00  0.00  0.00  0.00  0.00  0.00  0.00  0.00
  
  
  *************************
  Conduit Surcharge Summary
  *************************
  
  ----------------------------------------------------------------------------
                                                           Hours        Hours 
                         --------- Hours Full --------   Above Full   Capacity
  Conduit                Both Ends  Upstream  Dnstream   Normal Flow   Limited
  ----------------------------------------------------------------------------
  WS02006229WS02006228        2.42      2.82      2.42      4.30         2.42
  WS02006256WS02006235        5.78      5.78      7.43      2.21         0.01
  WS02006253WS02006251        0.01      0.01      0.31      0.01         0.01
  WS02006252WS02006251        2.08      2.08      3.24      2.94         0.01
  WS02006251WS02006249        0.01      0.01      0.01      2.08         0.01
  WS02006249WS02006248        0.01      0.01      0.01      4.16         0.01
  WS02006248WS02006247        0.01      0.01      0.01      0.01         0.01
  WS02006247WS02006245        0.01      0.26      0.01      4.67         0.01
  WS02006245WS02006243        0.12      0.12      0.40      0.08         0.01
  WS02006243WS02006242        0.44      0.44      1.83      0.01         0.01
  WS02006242WS02006240        0.53      0.53      2.44      3.26         0.01
  WS02006240WS02006239        0.83      0.83      1.09      0.01         0.01
  WS02006239WS02006238        2.19      2.19      2.38      0.10         0.10
  WS02006238WS02006235        2.13      2.13      2.86      0.01         0.01
  WS02006235WS02006234        0.56      0.56      1.85      5.75         0.01
  WS02006234WS02006232        0.96      0.96      2.94      0.01         0.01
  WS02006232WS02006231        0.42      0.42      2.94      0.01         0.01
  WS02006231WS02006230        0.26      0.26      0.45      5.81         0.01
  WS02006230WS02006229        3.82      4.10      3.82      5.91         3.81
  WS02006228WS02006109        2.60      3.40      2.60      5.06         2.60
  WS02006112WS02006115        0.01      0.01      0.67      0.01         0.01
  WS02006111WS02006112        0.01      0.01      4.42      0.01         0.01
  WS02006110WS02006113        0.01      0.01      3.10      0.01         0.01
  WS02006109WS02006110        0.54      0.54      3.39      0.54         0.01
  WS02004405WS02004406        0.01      0.14      0.01      0.62         0.01
  WS02004404WS02004405        0.14      0.23      0.14      5.70         0.14
  WS02004403WS02004404        0.01      0.01      0.23      0.01         0.01
  WS02003072WS02003073        0.01      0.01      0.01      5.17         0.01
  HS02004480HS02004478        0.01      0.01      0.01      0.14         0.01
  YS02001759YS02001757        5.50      5.50      5.54      0.01         0.01
  YS02001762YS02001759        5.49      5.49      5.50      0.01         0.01
  YS02001765YS02001762        5.46      5.46      5.49      0.01         0.01
  YS02001770YS02001767        5.32      5.35      5.34      0.01         0.79
  YS02001774YS02001770        5.25      5.25      5.49      0.01         0.01
  YS02001779YS02001774        5.06      5.06      5.49      0.01         0.01
  YS02001649YS02001757        5.49      5.49      5.54      0.01         0.01
  YS02001767YS02001765        5.34      5.34      5.46      0.01         0.01
  YS02001784YS02001785        0.01      0.01      0.01      1.17         0.01
  YS02001788YS02001790        0.01      0.01      0.34      0.01         0.01
  YS02001790YS02001791        0.34      0.34      0.39      0.01         0.01
  YS02001791YS02001793        0.39      0.39      0.68      0.01         0.01
  YS02001910YS02001907        0.01      0.01      0.13      0.01         0.01
  YS02001786YS02001788        0.01      0.01      0.01      0.66         0.01
  YS02001629YS02163301        5.27      5.27      5.34      0.01         0.01
  YS02001619YS02001622        4.30      4.31      4.44      0.01         0.02
  YS02001622YS02001625        4.44      4.44      5.20      0.01         0.01
  YS02001625YS02001629        4.36      4.36      5.20      0.01         0.01
  YS02163301YS02001633        5.34      5.34      5.46      0.01         0.01
  YS02163601YS02164001        5.46      5.46      5.48      0.01         0.01
  YS02164001YS02001641        5.46      5.46      5.47      0.01         0.02
  YS02001641YS02001644        5.47      5.47      5.47      0.01         1.20
  YS02001647YS02001649        5.17      5.17      5.49      0.01         0.01
  YS02006553YS02006556        0.01      0.01      0.42      0.01         0.01
  YS02006556YS02006558        0.01      0.01      0.59      0.01         0.01
  YS02001907YS02006553        1.12      1.12      1.31      0.01         0.01
  YS02006558YS02006561        0.01      0.01      0.01      0.97         0.01
  YS02001633YS02163601        5.45      5.45      5.48      0.01         0.01
  YS02001644YS02001647        5.17      5.17      5.47      0.01         0.01
  YS02001745YS02001748        0.01      0.01      3.61      0.01         0.01
  YS02001748YS02001751        3.98      3.98      4.44      0.01         0.01
  YS02001751YS02001754        4.44      4.44      5.07      0.01         0.01
  YS02001754YS02001757        5.15      5.15      5.54      0.01         0.01
  YS02001904YS02001907        0.01      0.01      0.49      0.01         0.01
  YS02001652YS02001649        5.19      5.19      5.49      0.01         0.01
  YS02001655YS02001652        4.54      4.54      5.13      0.01         0.01
  YS02001658YS02001655        3.60      3.60      4.54      0.01         0.01
  YS02001661YS02001658        0.01      0.01      3.60      0.01         0.01
  YS02001793JiankangQianchi        0.54      0.54      2.63      0.01         0.01
  YS02001757CaochengTiaoxuchi        4.03      4.03      5.54      0.01         0.01
  
  
  ***************
  Pumping Summary
  ***************
  
  ---------------------------------------------------------------------------------------------------------
                                                  Min       Avg       Max     Total     Power    % Time Off
                        Percent   Number of      Flow      Flow      Flow    Volume     Usage    Pump Curve
  Pump                 Utilized   Start-Ups       LPS       LPS       LPS  10^6 ltr     Kw-hr    Low   High
  ---------------------------------------------------------------------------------------------------------
  CC-Pump-1               63.76           4      0.00    155.78    200.00     2.733      5.98    0.0   12.8
  CC-Pump-2               65.89           5      0.00    142.58    200.00     2.613      5.42    0.0   12.4
  JK-Pump-1               89.34           6      0.00    169.10    300.00     3.047     43.58    0.0    0.0
  JK-Pump-2               72.34           7      0.00    168.81    300.00     2.634     34.17    0.0    0.0
  XR-Pump-1               89.35           6      0.00     68.38     95.00     1.795     17.94    0.0    0.0
  XR-Pump-2               85.10           6      0.00     74.53     95.00     1.738     15.46    0.0    0.0
  XR-Pump-3               76.57           8      0.00     71.52     95.00     1.510     12.70    0.0    0.0
  XR-Pump-4               89.35           7      0.00     67.00     95.00     1.710     15.00    0.0    0.0
  

  Analysis begun on:  Tue Dec 21 14:19:17 2021
  Analysis ended on:  Tue Dec 21 14:19:21 2021
  Total elapsed time: 00:00:04