
  EPA STORM WATER MANAGEMENT MODEL - VERSION 5.1 (Build 5.3.0.dev0)
  --------------------------------------------------------------

  WARNING 04: minimum elevation drop used for Conduit WS02004404WS02004405
  WARNING 03: negative offset ignored for Link YS02001904YS02001907
  
  *********************************************************
  NOTE: The summary statistics displayed in this report are
  based on results found at every computational time step,  
  not just on results from each reporting time step.
  *********************************************************
  
  ****************
  Analysis Options
  ****************
  Flow Units ............... LPS
  Process Models:
    Rainfall/Runoff ........ YES
    RDII ................... NO
    Snowmelt ............... NO
    Groundwater ............ NO
    Flow Routing ........... YES
    Ponding Allowed ........ NO
    Water Quality .......... NO
  Infiltration Method ...... HORTON
  Flow Routing Method ...... DYNWAVE
  Surcharge Method ......... EXTRAN
  Starting Date ............ 08/28/2015 08:00:00
  Ending Date .............. 08/28/2015 15:50:00
  Antecedent Dry Days ...... 8.0
  Report Time Step ......... 00:01:00
  Wet Time Step ............ 00:01:00
  Dry Time Step ............ 00:01:00
  Routing Time Step ........ 5.00 sec
  Variable Time Step ....... YES
  Maximum Trials ........... 8
  Number of Threads ........ 4
  Head Tolerance ........... 0.001500 m
  
  
  **************************        Volume         Depth
  Runoff Quantity Continuity     hectare-m            mm
  **************************     ---------       -------
  Total Precipitation ......         5.556        12.164
  Evaporation Loss .........         0.000         0.000
  Infiltration Loss ........         1.427         3.124
  Surface Runoff ...........         3.072         6.726
  Final Storage ............         1.058         2.316
  Continuity Error (%) .....        -0.016
  
  
  **************************        Volume        Volume
  Flow Routing Continuity        hectare-m      10^6 ltr
  **************************     ---------     ---------
  Dry Weather Inflow .......         0.616         6.165
  Wet Weather Inflow .......         3.071        30.709
  Groundwater Inflow .......         0.000         0.000
  RDII Inflow ..............         0.000         0.000
  External Inflow ..........         0.102         1.024
  External Outflow .........         2.055        20.555
  Flooding Loss ............         1.260        12.597
  Evaporation Loss .........         0.000         0.000
  Exfiltration Loss ........         0.000         0.000
  Initial Stored Volume ....         0.076         0.761
  Final Stored Volume ......         0.610         6.104
  Continuity Error (%) .....        -1.548
  
  
  *************************
  Highest Continuity Errors
  *************************
  Node HS02004842 (16.24%)
  Node YS02001884 (11.95%)
  Node JK-storage (-6.38%)
  Node YS02001774 (3.71%)
  Node YSB1171 (3.12%)
  
  
  ***************************
  Time-Step Critical Elements
  ***************************
  Link 3 (49.63%)
  Link WS02006252WS02006251 (39.74%)
  Link WS02006238WS02006235 (3.30%)
  Link WS02006280WS02006229 (1.50%)
  
  
  ********************************
  Highest Flow Instability Indexes
  ********************************
  Link YS02001619YS02001622 (40)
  Link YS02163301YS02001633 (39)
  Link YS02163601YS02164001 (39)
  Link YS02001629YS02163301 (39)
  Link YS02164001YS02001641 (35)
  
  
  *************************
  Routing Time Step Summary
  *************************
  Minimum Time Step           :     0.50 sec
  Average Time Step           :     0.80 sec
  Maximum Time Step           :     5.00 sec
  Percent in Steady State     :    -0.00
  Average Iterations per Step :     4.67
  Percent Not Converging      :    22.54
  
  
  ***************************
  Subcatchment Runoff Summary
  ***************************
  
  ------------------------------------------------------------------------------------------------------------------------------
                            Total      Total      Total      Total     Imperv       Perv      Total       Total     Peak  Runoff
                           Precip      Runon       Evap      Infil     Runoff     Runoff     Runoff      Runoff   Runoff   Coeff
  Subcatchment                 mm         mm         mm         mm         mm         mm         mm    10^6 ltr      LPS
  ------------------------------------------------------------------------------------------------------------------------------
  sub0                      12.16       0.00       0.00       0.85      10.05       0.00      10.05        0.01     1.91   0.826
  sub1                      12.16       0.00       0.00       1.34       9.56       0.00       9.56        0.06    14.15   0.786
  sub2                      12.16       0.00       0.00       4.50       6.75       0.00       6.75        0.06    13.75   0.555
  sub3                      12.16       0.00       0.00       4.50       6.71       0.00       6.71        0.15    32.07   0.552
  sub4                      12.16       0.00       0.00       1.34       9.40       0.00       9.40        0.20    40.20   0.773
  sub5                      12.16       0.00       0.00       0.85       9.99       0.00       9.99        0.11    25.19   0.822
  sub7                      12.16       0.00       0.00       1.09       9.81       0.00       9.81        0.03     7.55   0.807
  sub8                      12.16       0.00       0.00       1.09       9.80       0.00       9.80        0.06    14.17   0.806
  sub9                      12.16       0.00       0.00       1.09       9.80       0.00       9.80        0.05    10.64   0.806
  sub10                     12.16       0.00       0.00       0.97       9.89       0.00       9.89        0.11    24.40   0.813
  sub11                     12.16       0.00       0.00       0.97       9.91       0.00       9.91        0.12    26.15   0.815
  sub12                     12.16       0.00       0.00       1.58       9.39       0.00       9.39        0.08    19.06   0.772
  sub14                     12.16       0.00       0.00       1.09       9.80       0.00       9.80        0.09    21.02   0.805
  sub15                     12.16       0.00       0.00       3.65       7.53       0.00       7.53        0.13    29.11   0.619
  sub16                     12.16       0.00       0.00       4.01       7.23       0.00       7.23        0.08    17.47   0.594
  sub17                     12.16       0.00       0.00       3.89       7.34       0.00       7.34        0.06    14.47   0.603
  sub22                     12.16       0.00       0.00       5.23       6.14       0.00       6.14        0.39    88.27   0.505
  sub23                     12.16       0.00       0.00       4.50       6.79       0.00       6.79        0.32    73.89   0.558
  sub60                     12.16       0.00       0.00       1.46       7.71       0.00       7.71        2.34   297.17   0.634
  sub61                     12.16       0.00       0.00       2.07       7.87       0.00       7.87        2.43   359.80   0.647
  sub62                     12.16       0.00       0.00       0.97       8.55       0.00       8.55        2.63   372.87   0.703
  sub63                     12.16       0.00       0.00       3.53       6.89       0.00       6.89        2.09   327.80   0.567
  sub64                     12.16       0.00       0.00       1.82       7.40       0.00       7.40        2.25   282.66   0.608
  sub65                     12.16       0.00       0.00       1.58       7.52       0.00       7.52        2.31   287.20   0.618
  sub66                     12.16       0.00       0.00       3.53       6.36       0.00       6.36        1.95   257.27   0.523
  sub67                     12.16       0.00       0.00       0.97       9.05       0.00       9.05        2.79   452.90   0.744
  sub68                     12.16       0.00       0.00       1.70       8.28       0.00       8.28        2.55   391.99   0.681
  sub69                     12.16       0.00       0.00       1.82       8.61       0.00       8.61        2.01   355.79   0.708
  sub70                     12.16       8.79       0.00       7.03      11.43       0.10      11.53        2.64   335.00   0.550
  sub71                     12.16       0.00       0.00       0.97       8.31       0.00       8.31        1.96   263.63   0.683
  sub72                     12.16       0.00       0.00       0.85       6.56       0.00       6.56        1.34   129.40   0.540
  sub73                     12.16      11.23       0.00       7.88      12.47       0.08      12.54        2.95   300.52   0.536
  sub74                     12.16       0.00       0.00       9.12       2.57       0.00       2.57        1.03   189.59   0.211
  
  
  ******************
  Node Depth Summary
  ******************
  
  ---------------------------------------------------------------------------------
                                 Average  Maximum  Maximum  Time of Max    Reported
                                   Depth    Depth      HGL   Occurrence   Max Depth
  Node                 Type       Meters   Meters   Meters  days hr:min      Meters
  ---------------------------------------------------------------------------------
  WS02001211           JUNCTION     0.65     0.77     5.61     0  04:41        0.77
  WS02001212           JUNCTION     0.38     0.48     5.55     0  04:41        0.48
  WS02001213           JUNCTION     0.62     0.74     5.50     0  03:08        0.74
  WS02003069           JUNCTION     0.46     0.60     5.18     0  03:08        0.60
  WS02003072           JUNCTION     0.52     0.65     5.02     0  03:08        0.65
  WS02003073           JUNCTION     0.31     0.40     4.47     0  03:09        0.40
  WS02003060           JUNCTION     0.41     0.53     5.46     0  03:07        0.53
  WS02003066           JUNCTION     0.25     0.33     5.88     0  03:05        0.33
  WS02003059           JUNCTION     0.69     0.80     5.49     0  03:08        0.80
  WS02003067           JUNCTION     0.61     0.75     6.07     0  03:05        0.75
  WS02004401           JUNCTION     0.73     0.99     6.99     0  03:03        0.98
  WS02004402           JUNCTION     0.76     1.00     6.96     0  03:03        1.00
  WS02004403           JUNCTION     0.77     1.01     6.94     0  03:03        1.00
  WS02004404           JUNCTION     0.85     1.07     6.92     0  03:03        1.06
  WS02004406           JUNCTION     0.85     1.04     6.87     0  03:03        1.04
  WS02004409           JUNCTION     0.54     0.76     6.53     0  03:05        0.76
  WS02004410           JUNCTION     0.56     0.77     6.49     0  03:05        0.77
  WS02004411           JUNCTION     0.57     0.77     6.45     0  03:05        0.77
  WS02004412           JUNCTION     0.59     0.77     6.41     0  03:05        0.77
  WS02004413           JUNCTION     0.74     0.92     6.39     0  03:06        0.92
  WS02004405           JUNCTION     0.84     1.05     6.90     0  03:03        1.05
  WS02006109           JUNCTION     0.82     1.12     7.74     0  03:02        1.11
  WS02006110           JUNCTION     0.80     1.03     7.61     0  03:02        1.01
  WS02006111           JUNCTION     0.24     0.37     7.08     0  03:02        0.37
  WS02006112           JUNCTION     0.90     1.21     7.09     0  03:03        1.20
  WS02006113           JUNCTION     0.37     0.51     7.41     0  03:02        0.51
  WS02006115           JUNCTION     0.62     0.90     7.04     0  03:03        0.90
  WS02006116           JUNCTION     0.70     0.98     7.02     0  03:03        0.98
  WS02006230           JUNCTION     0.82     1.19     7.93     0  03:02        1.18
  WS02006231           JUNCTION     0.55     0.85     7.97     0  03:02        0.84
  WS02006232           JUNCTION     0.69     0.97     8.01     0  03:02        0.96
  WS02006234           JUNCTION     0.62     0.88     8.04     0  03:02        0.88
  WS02006235           JUNCTION     0.65     0.91     8.08     0  03:02        0.90
  WS02006238           JUNCTION     0.68     0.94     8.08     0  03:03        0.94
  WS02006240           JUNCTION     0.59     0.83     8.12     0  03:02        0.82
  WS02006242           JUNCTION     0.65     0.88     8.15     0  03:02        0.88
  WS02006243           JUNCTION     0.53     0.76     8.18     0  03:02        0.76
  WS02006245           JUNCTION     0.51     0.73     8.21     0  03:02        0.72
  WS02006247           JUNCTION     0.52     0.73     8.23     0  03:02        0.73
  WS02006248           JUNCTION     0.46     0.66     8.25     0  03:02        0.66
  WS02006249           JUNCTION     0.49     0.66     8.26     0  03:02        0.66
  WS02006239           JUNCTION     0.64     0.89     8.10     0  03:02        0.88
  WS02006251           JUNCTION     0.49     0.72     8.39     0  03:01        0.72
  WS02006252           JUNCTION     0.44     0.59     8.84     0  02:42        0.59
  WS02006253           JUNCTION     0.52     0.74     8.39     0  03:01        0.74
  WS02006256           JUNCTION     1.07     1.21     8.15     0  03:10        1.21
  WS02004138           JUNCTION     0.14     0.19     7.44     0  04:40        0.19
  WS02004407           JUNCTION     0.24     0.33     6.65     0  03:03        0.33
  WS02006228           JUNCTION     0.83     1.18     7.84     0  03:02        1.18
  WS02006229           JUNCTION     0.81     1.20     7.89     0  03:02        1.19
  WS02006280           JUNCTION     0.07     0.19     8.46     0  03:02        0.19
  WS02006284           JUNCTION     0.38     0.55     8.95     0  03:02        0.55
  WS02006287           JUNCTION     0.11     0.28     9.24     0  03:01        0.28
  WSF200               JUNCTION     0.24     0.36     5.59     0  03:05        0.36
  HS02004901           JUNCTION     0.13     0.28    10.10     0  03:01        0.28
  HS02004881           JUNCTION     0.01     0.04     9.07     0  03:01        0.04
  HS02004876           JUNCTION     0.05     0.12     9.15     0  03:01        0.12
  HS02004870           JUNCTION     0.02     0.06     9.35     0  03:01        0.06
  HS02004862           JUNCTION     0.02     0.07     9.46     0  03:01        0.07
  HS02004856           JUNCTION     0.08     0.13     9.55     0  03:01        0.13
  HS02004852           JUNCTION     0.01     0.05     9.56     0  03:01        0.05
  HS02004848           JUNCTION     0.01     0.05     9.65     0  03:01        0.05
  HS02004842           JUNCTION     0.34     0.38     9.65     0  03:01        0.38
  HS02004837           JUNCTION     0.03     0.07     9.65     0  03:01        0.07
  HS02004830           JUNCTION     0.04     0.08     9.55     0  03:01        0.08
  HS02004824           JUNCTION     0.03     0.06     9.46     0  03:01        0.06
  HS02004817           JUNCTION     0.45     0.60     9.44     0  03:01        0.60
  HS02004807           JUNCTION     0.13     0.27     9.44     0  03:01        0.27
  HS02004802           JUNCTION     0.17     0.30     9.43     0  03:01        0.30
  HS02004799           JUNCTION     0.13     0.33     9.54     0  03:01        0.33
  HS02004792           JUNCTION     0.04     0.14     9.66     0  03:01        0.14
  HS02004788           JUNCTION     0.03     0.10    10.00     0  03:01        0.10
  HS02004785           JUNCTION     0.05     0.17    10.07     0  03:01        0.17
  HS02004777           JUNCTION     0.15     0.30    10.10     0  03:01        0.30
  HS02004770           JUNCTION     0.12     0.27    10.10     0  03:01        0.27
  HS02004480           JUNCTION     0.09     0.26     9.50     0  03:01        0.26
  HS02004479           JUNCTION     0.13     0.30     9.50     0  03:01        0.30
  HS02004478           JUNCTION     0.07     0.18     9.41     0  03:01        0.18
  YS02001745           JUNCTION     0.68     0.87     8.39     0  03:25        0.87
  YS02001748           JUNCTION     1.06     2.07     9.15     0  02:45        1.32
  YS02001751           JUNCTION     1.25     2.06     8.93     0  02:35        1.52
  YS02001754           JUNCTION     1.50     2.01     8.62     0  02:46        1.80
  YS02001762           JUNCTION     1.70     2.03     8.43     0  03:21        2.02
  YS02001765           JUNCTION     1.66     1.98     8.43     0  03:14        1.97
  YS02001767           JUNCTION     1.62     1.93     8.42     0  03:19        1.92
  YS02001770           JUNCTION     1.62     1.91     8.40     0  03:25        1.90
  YS02001774           JUNCTION     1.68     1.97     8.40     0  03:14        1.96
  YS02001779           JUNCTION     1.43     1.68     8.37     0  02:45        1.68
  YS02001882           JUNCTION     0.54     1.63     8.34     0  02:52        1.60
  YS02001884           JUNCTION     0.63     1.72     8.34     0  02:52        1.70
  YS02001759           JUNCTION     1.74     2.07     8.43     0  03:22        2.06
  YS02001887           JUNCTION     0.71     1.79     8.33     0  02:52        1.79
  YS02001890           JUNCTION     0.74     1.81     8.32     0  02:52        1.80
  YS02001898           JUNCTION     0.51     1.56     8.29     0  02:52        1.55
  YS02001901           JUNCTION     0.63     1.67     8.28     0  02:59        1.66
  YS02001904           JUNCTION     0.61     1.64     8.27     0  02:58        1.63
  YS02001907           JUNCTION     0.94     1.96     8.25     0  02:52        1.96
  YS02001910           JUNCTION     0.73     1.78     8.28     0  02:53        1.77
  YS02001915           JUNCTION     0.53     1.59     8.31     0  02:53        1.57
  YS02001918           JUNCTION     0.27     1.27     8.33     0  02:53        1.25
  YS02001619           JUNCTION     1.22     1.56     8.49     0  02:35        1.47
  YS02001629           JUNCTION     1.57     1.85     8.40     0  02:41        1.84
  YS02001641           JUNCTION     1.67     1.95     8.38     0  02:45        1.93
  YS02001644           JUNCTION     1.67     1.92     8.35     0  02:45        1.92
  YS02001652           JUNCTION     1.52     2.16     8.76     0  03:02        1.90
  YS02001655           JUNCTION     1.28     2.20     9.05     0  03:00        1.73
  YS02001920           JUNCTION     0.37     1.34     8.35     0  02:53        1.32
  YS02001923           JUNCTION     0.21     1.09     8.35     0  02:53        1.08
  YS02001926           JUNCTION     0.27     0.90     8.34     0  02:53        0.89
  YS02001929           JUNCTION     0.15     0.69     8.38     0  02:53        0.64
  YS02001658           JUNCTION     1.01     2.30     9.44     0  03:00        1.55
  YS02001661           JUNCTION     0.79     2.46     9.86     0  03:02        1.52
  YS02001664           JUNCTION     0.34     0.57     8.49     0  03:36        0.56
  YS02001622           JUNCTION     1.24     1.56     8.46     0  02:42        1.49
  YS02001633           JUNCTION     1.66     1.98     8.44     0  02:45        1.94
  YS02001649           JUNCTION     1.71     2.05     8.44     0  02:57        2.05
  YS02001757           JUNCTION     1.83     2.17     8.43     0  03:23        2.16
  YS02001895           JUNCTION     0.50     1.56     8.31     0  02:52        1.55
  YS02001625           JUNCTION     1.52     1.78     8.38     0  02:41        1.78
  YS02163301           JUNCTION     1.60     1.91     8.43     0  02:45        1.87
  YS02163601           JUNCTION     1.71     2.02     8.42     0  02:45        1.98
  YS02164001           JUNCTION     1.65     1.95     8.41     0  02:45        1.91
  YS02001647           JUNCTION     1.50     1.81     8.42     0  03:00        1.79
  YSB1154              JUNCTION     0.27     0.45     9.51     0  03:01        0.45
  YSB6556              JUNCTION     0.16     0.34     9.51     0  03:01        0.34
  YSB1174              JUNCTION     0.22     0.40     9.51     0  03:01        0.40
  YSB1171              JUNCTION     0.42     0.60     9.51     0  03:01        0.60
  YS02006553           JUNCTION     0.94     1.97     8.25     0  03:00        1.96
  YS02006561           JUNCTION     0.31     1.08     7.74     0  02:52        1.07
  YS02006556           JUNCTION     0.91     1.92     8.23     0  03:04        1.91
  YS02006558           JUNCTION     0.95     1.96     8.23     0  03:01        1.95
  YS02001783           JUNCTION     0.55     1.89     8.03     0  02:28        1.46
  YS02001784           JUNCTION     0.57     1.61     7.68     0  02:28        1.40
  YS02001786           JUNCTION     0.51     1.71     7.74     0  02:28        1.25
  YS02001788           JUNCTION     0.45     1.82     7.80     0  02:28        1.12
  YS02001790           JUNCTION     0.58     1.96     7.60     0  02:26        1.29
  YS02001791           JUNCTION     0.58     2.49     7.96     0  02:26        1.27
  YS02001793           JUNCTION     0.81     2.89     7.72     0  02:24        1.80
  WS02004139           JUNCTION     0.59     0.72     5.63     0  04:40        0.72
  WSC                  OUTFALL      0.31     0.40     1.07     0  03:09        0.40
  3                    OUTFALL      0.10     0.21     6.21     0  03:10        0.21
  4                    OUTFALL      0.05     0.16     7.16     0  03:02        0.16
  5                    OUTFALL      0.00     0.00     5.00     0  00:00        0.00
  JK-storage           STORAGE      2.91     5.80     6.60     0  02:27        5.80
  CC-storage           STORAGE      1.05     1.38     8.38     0  04:04        1.38
  XR-storage           STORAGE      7.55     7.72     5.72     0  02:13        7.72
  
  
  *******************
  Node Inflow Summary
  *******************
  
  -------------------------------------------------------------------------------------------------
                                  Maximum  Maximum                  Lateral       Total        Flow
                                  Lateral    Total  Time of Max      Inflow      Inflow     Balance
                                   Inflow   Inflow   Occurrence      Volume      Volume       Error
  Node                 Type           LPS      LPS  days hr:min    10^6 ltr    10^6 ltr     Percent
  -------------------------------------------------------------------------------------------------
  WS02001211           JUNCTION      7.35   381.47     0  04:40       0.207         6.2       0.537
  WS02001212           JUNCTION      0.00   377.35     0  04:41           0        6.16       0.262
  WS02001213           JUNCTION      0.00   375.88     0  04:41           0        6.15       0.375
  WS02003069           JUNCTION      0.32   976.71     0  03:07     0.00902        15.4       0.201
  WS02003072           JUNCTION      0.00   976.54     0  03:08           0        15.4       0.244
  WS02003073           JUNCTION      1.82   978.35     0  03:08      0.0514        15.4       0.277
  WS02003060           JUNCTION     16.53   976.70     0  03:07       0.466        15.4       0.190
  WS02003066           JUNCTION      0.00   672.08     0  03:05           0         8.9       0.058
  WS02003059           JUNCTION      0.00   375.22     0  04:42           0        6.13       0.641
  WS02003067           JUNCTION      0.00   672.06     0  03:06           0        8.91       0.117
  WS02004401           JUNCTION      0.00   677.27     0  03:03           0        9.17       0.264
  WS02004402           JUNCTION      0.00   673.83     0  03:04           0        9.15       0.246
  WS02004403           JUNCTION      0.00   673.62     0  03:03           0        9.13       0.221
  WS02004404           JUNCTION      0.16   674.17     0  03:03     0.00457        9.11       0.163
  WS02004406           JUNCTION      0.00   674.21     0  03:03           0        9.08       0.398
  WS02004409           JUNCTION      0.00   673.70     0  03:03           0        9.03       0.219
  WS02004410           JUNCTION      0.00   673.02     0  03:04           0        9.01       0.242
  WS02004411           JUNCTION      0.00   672.62     0  03:04           0        8.99       0.245
  WS02004412           JUNCTION      0.00   672.16     0  03:04           0        8.97       0.260
  WS02004413           JUNCTION      0.00   672.31     0  03:06           0        8.94       0.376
  WS02004405           JUNCTION      0.04   674.26     0  03:03     0.00107         9.1       0.244
  WS02006109           JUNCTION      1.23   666.53     0  03:02      0.0347        9.25       0.223
  WS02006110           JUNCTION      0.00   666.51     0  03:02           0        9.23       0.248
  WS02006111           JUNCTION      0.00   699.92     0  03:02           0        9.19       0.058
  WS02006112           JUNCTION     14.47   679.20     0  03:02      0.0629        9.25       0.350
  WS02006113           JUNCTION      0.00   667.86     0  03:03           0        9.21       0.127
  WS02006115           JUNCTION      0.00   679.51     0  03:02           0        9.22       0.265
  WS02006116           JUNCTION      0.00   679.11     0  03:03           0         9.2       0.233
  WS02006230           JUNCTION     10.28   402.91     0  05:20        0.29        7.37       0.190
  WS02006231           JUNCTION      0.00   392.71     0  05:10           0        7.09       0.213
  WS02006232           JUNCTION      0.00   392.71     0  05:10           0        7.11       0.244
  WS02006234           JUNCTION      0.00   392.78     0  05:10           0        7.12       0.152
  WS02006235           JUNCTION      0.00   392.80     0  05:10           0        7.16       0.166
  WS02006238           JUNCTION      0.00   333.60     0  05:00           0        5.33       0.165
  WS02006240           JUNCTION      0.00   334.18     0  05:00           0        5.33       0.299
  WS02006242           JUNCTION      0.00   339.86     0  03:31           0        5.34       0.349
  WS02006243           JUNCTION      0.00   344.76     0  03:31           0        5.34       0.077
  WS02006245           JUNCTION      0.00   346.12     0  03:31           0        5.35       0.251
  WS02006247           JUNCTION      0.00   347.51     0  03:31           0        5.36       0.197
  WS02006248           JUNCTION      0.00   352.02     0  03:30           0        5.37       0.141
  WS02006249           JUNCTION      0.00   480.68     0  03:01           0        6.58       0.227
  WS02006239           JUNCTION      0.00   334.26     0  05:00           0        5.33       0.264
  WS02006251           JUNCTION      0.08   481.16     0  03:01     0.00217        6.61       0.217
  WS02006252           JUNCTION      0.00   400.00     0  02:40           0        6.23       0.008
  WS02006253           JUNCTION      1.91    81.00     0  03:01     0.00814       0.384       2.206
  WS02006256           JUNCTION      0.00   600.00     0  03:10           0        5.86       0.042
  WS02004138           JUNCTION      0.00   380.00     0  05:00           0        6.01       0.050
  WS02004407           JUNCTION      0.00   674.38     0  03:03           0        9.04       0.098
  WS02006228           JUNCTION      0.00   665.38     0  03:02           0        9.23       0.167
  WS02006229           JUNCTION      0.00   663.87     0  03:02           0        9.24       0.142
  WS02006280           JUNCTION      0.00   375.54     0  03:02           0        1.89       0.004
  WS02006284           JUNCTION      0.10   375.54     0  03:02      0.0027        1.89       0.064
  WS02006287           JUNCTION      0.00   375.26     0  03:01           0        1.89       0.037
  WSF200               JUNCTION      0.00   672.19     0  03:05           0         8.9       0.062
  HS02004901           JUNCTION     17.47    17.47     0  03:01      0.0757      0.0759       2.380
  HS02004881           JUNCTION      7.55    79.19     0  03:01      0.0331       0.357       0.075
  HS02004876           JUNCTION     14.15    72.10     0  03:01      0.0636       0.324       0.171
  HS02004870           JUNCTION     14.17    58.27     0  03:01      0.0626       0.261       0.043
  HS02004862           JUNCTION     13.95    44.46     0  03:01      0.0685       0.198       0.089
  HS02004856           JUNCTION     10.64    30.80     0  03:01      0.0471       0.131       1.116
  HS02004852           JUNCTION      0.00    20.44     0  03:01           0       0.084       0.069
  HS02004848           JUNCTION     32.07    32.07     0  03:01       0.151       0.151       0.033
  HS02004842           JUNCTION      0.00    11.42     0  03:01           0      0.0801      19.392
  HS02004837           JUNCTION     30.75    41.91     0  03:01       0.288       0.355       0.228
  HS02004830           JUNCTION      0.15    41.84     0  03:01     0.00423       0.346       0.358
  HS02004824           JUNCTION     40.25    81.79     0  03:01       0.197       0.542       0.100
  HS02004817           JUNCTION      0.60    82.18     0  03:01      0.0169       0.558       3.079
  HS02004807           JUNCTION     26.15   107.25     0  03:01       0.115       0.657       0.656
  HS02004802           JUNCTION      0.00   106.49     0  03:01           0       0.653       0.620
  HS02004799           JUNCTION     21.02   227.51     0  03:01      0.0932        1.06       0.236
  HS02004792           JUNCTION     88.55   207.33     0  03:01       0.396       0.966       0.043
  HS02004788           JUNCTION     30.78   119.37     0  03:01       0.177       0.571       0.069
  HS02004785           JUNCTION      0.15    89.79     0  03:01     0.00423       0.396       0.125
  HS02004777           JUNCTION      0.03    90.24     0  03:01    0.000846       0.397       1.326
  HS02004770           JUNCTION     73.89    90.93     0  03:01       0.324       0.398       0.787
  HS02004480           JUNCTION      0.00   269.27     0  03:01           0        1.25       0.099
  HS02004479           JUNCTION      0.00    42.82     0  03:02           0       0.204       0.360
  HS02004478           JUNCTION      0.00   375.17     0  03:01           0        1.89       0.018
  YS02001745           JUNCTION    297.18   297.18     0  03:01        2.34        2.34       0.378
  YS02001748           JUNCTION      0.04   498.81     0  02:45     0.00127        2.33       0.994
  YS02001751           JUNCTION      0.01   312.19     0  02:34     0.00031        2.31       1.039
  YS02001754           JUNCTION      0.26   309.53     0  03:00     0.00733        2.29       1.087
  YS02001762           JUNCTION      0.00   352.99     0  02:57           0        1.94       1.093
  YS02001765           JUNCTION      0.00   353.15     0  02:57           0        1.94       1.254
  YS02001767           JUNCTION      0.54   352.90     0  02:57      0.0151        1.96       1.865
  YS02001770           JUNCTION    373.02   373.02     0  03:01        2.63        2.64       1.204
  YS02001774           JUNCTION      0.00   255.80     0  03:29           0       0.678       3.857
  YS02001779           JUNCTION      0.01   256.63     0  03:29    0.000141       0.645       2.452
  YS02001882           JUNCTION      0.00    20.20     0  02:45           0      0.0151      17.394
  YS02001884           JUNCTION      0.00    27.37     0  02:30           0      0.0509      13.570
  YS02001759           JUNCTION    359.84   696.35     0  02:58        2.43        4.33       0.532
  YS02001887           JUNCTION    453.35   453.56     0  03:01         2.8        2.83       0.300
  YS02001890           JUNCTION      0.00   453.61     0  03:01           0        2.79       0.331
  YS02001898           JUNCTION      0.00   453.78     0  03:01           0        2.77       0.118
  YS02001901           JUNCTION      0.00   453.75     0  03:01           0        2.77       0.247
  YS02001904           JUNCTION      0.00   453.63     0  03:01           0        2.77       0.225
  YS02001907           JUNCTION      0.00   864.23     0  02:58           0        6.12       0.398
  YS02001910           JUNCTION      0.00   433.44     0  02:54           0        3.37       0.350
  YS02001915           JUNCTION    263.65   433.27     0  02:54        1.96        3.39       0.179
  YS02001918           JUNCTION      0.00   197.47     0  02:54           0        1.43       0.135
  YS02001619           JUNCTION    257.27   257.27     0  03:01        1.95        1.95       0.626
  YS02001629           JUNCTION      0.00   212.96     0  02:50           0        1.64       1.778
  YS02001641           JUNCTION      0.00   450.38     0  02:51           0        3.85       0.547
  YS02001644           JUNCTION    282.70   972.56     0  03:28        2.25        7.44       0.352
  YS02001652           JUNCTION      0.00   375.20     0  03:01           0        2.05       1.136
  YS02001655           JUNCTION      0.15   375.43     0  03:01     0.00434        2.07       1.242
  YS02001920           JUNCTION      2.87   197.36     0  02:54      0.0809        1.42       0.208
  YS02001923           JUNCTION      0.04   222.76     0  02:54     0.00106        1.34       0.050
  YS02001926           JUNCTION      0.05   187.93     0  02:54     0.00147        1.34       0.247
  YS02001929           JUNCTION    129.40   129.40     0  03:01        1.34        1.34       0.040
  YS02001658           JUNCTION      0.00   498.22     0  02:42           0        2.09       1.067
  YS02001661           JUNCTION      0.00   702.08     0  02:56           0        2.83      -0.315
  YS02001664           JUNCTION    327.80   354.83     0  02:56        2.09        2.83       0.181
  YS02001622           JUNCTION      0.00   257.53     0  03:01           0        1.94       1.668
  YS02001633           JUNCTION    287.40   450.74     0  02:51        2.32        3.91       0.826
  YS02001649           JUNCTION      0.00   961.03     0  02:51           0        5.06       0.733
  YS02001757           JUNCTION      0.00  1834.37     0  02:52           0        10.2       0.914
  YS02001895           JUNCTION      0.00   453.61     0  03:01           0        2.78       0.176
  YS02001625           JUNCTION      0.00   257.22     0  03:01           0         1.9       2.050
  YS02163301           JUNCTION      0.00   212.88     0  02:50           0        1.62       1.489
  YS02163601           JUNCTION      0.11   450.76     0  02:51      0.0031        3.88       0.779
  YS02164001           JUNCTION      0.00   450.64     0  02:51           0        3.86       0.517
  YS02001647           JUNCTION      0.00   685.67     0  02:51           0        3.79       0.747
  YSB1154              JUNCTION     25.19    25.19     0  03:01       0.113       0.114       1.285
  YSB6556              JUNCTION      0.00    24.91     0  03:01           0       0.115       1.100
  YSB1174              JUNCTION     19.06    19.06     0  03:01      0.0821      0.0827       1.581
  YSB1171              JUNCTION      0.00    43.19     0  03:01           0       0.203       3.220
  YS02006553           JUNCTION      0.00   666.90     0  03:17           0         5.9       0.259
  YS02006561           JUNCTION      0.00   964.00     0  03:00           0        8.41       0.009
  YS02006556           JUNCTION      0.00   666.88     0  03:17           0         5.9       0.190
  YS02006558           JUNCTION    392.87   964.39     0  03:00        2.57        8.44       0.063
  YS02001783           JUNCTION      0.00   964.14     0  03:00           0        8.41       0.029
  YS02001784           JUNCTION      1.06   965.16     0  03:00      0.0299        8.44       0.043
  YS02001786           JUNCTION      0.06   965.14     0  03:00     0.00159        8.44       0.039
  YS02001788           JUNCTION      0.07   965.30     0  03:01       0.002        8.44       0.025
  YS02001790           JUNCTION      0.15   965.33     0  02:59     0.00437        8.44       0.027
  YS02001791           JUNCTION      0.00   965.39     0  03:01           0        8.44       0.015
  YS02001793           JUNCTION      0.00   965.46     0  03:01           0        8.44      -0.011
  WS02004139           JUNCTION      0.32   379.65     0  04:40     0.00905        6.02       0.524
  WSC                  OUTFALL       0.00   978.37     0  03:09           0        15.4       0.000
  3                    OUTFALL       0.00   528.61     0  03:10           0           4       0.000
  4                    OUTFALL       0.00   237.02     0  03:02           0         1.2       0.000
  5                    OUTFALL       0.00     0.00     0  00:00           0           0       0.000 ltr
  JK-storage           STORAGE       0.00   965.62     0  03:00           0        8.59      -5.999
  CC-storage           STORAGE       0.00  1833.92     0  02:52           0        9.45       0.496
  XR-storage           STORAGE     690.11   690.11     0  03:01        9.61        10.2      -0.001
  
  
  **********************
  Node Surcharge Summary
  **********************
  
  Surcharging occurs when water rises above the top of the highest conduit.
  ---------------------------------------------------------------------
                                               Max. Height   Min. Depth
                                   Hours       Above Crown    Below Rim
  Node                 Type      Surcharged         Meters       Meters
  ---------------------------------------------------------------------
  WS02004402           JUNCTION        0.02          0.004        1.736
  WS02004403           JUNCTION        0.06          0.006        2.024
  WS02004404           JUNCTION        0.62          0.068        2.712
  WS02004406           JUNCTION        0.49          0.038        2.412
  WS02004405           JUNCTION        0.56          0.054        2.746
  WS02006109           JUNCTION        3.43          0.302        1.518
  WS02006110           JUNCTION        1.17          0.118        1.732
  WS02006112           JUNCTION        1.24          0.205        1.475
  WS02006230           JUNCTION        0.59          0.108        1.462
  WS02006231           JUNCTION        0.92          0.136        1.394
  WS02006232           JUNCTION        3.59          0.269        1.211
  WS02006234           JUNCTION        1.16          0.161        1.079
  WS02006235           JUNCTION        2.75          0.202        1.088
  WS02006238           JUNCTION        3.24          0.216        1.214
  WS02006240           JUNCTION        0.96          0.117        1.273
  WS02006242           JUNCTION        2.88          0.152        0.668
  WS02006243           JUNCTION        0.59          0.053        0.717
  WS02006245           JUNCTION        0.34          0.016        0.834
  WS02006247           JUNCTION        0.47          0.019        0.741
  WS02006239           JUNCTION        1.90          0.147        1.143
  WS02006252           JUNCTION        3.72          0.193        0.907
  WS02006228           JUNCTION        3.32          0.354        1.846
  YS02001748           JUNCTION        4.96          0.994        0.196
  YS02001751           JUNCTION        5.18          1.055        0.145
  YS02001754           JUNCTION        5.37          0.958        0.192
  YS02001762           JUNCTION        5.64          1.029        0.121
  YS02001765           JUNCTION        5.61          0.976        0.124
  YS02001767           JUNCTION        5.53          0.928        0.102
  YS02001770           JUNCTION        5.44          0.880        0.040
  YS02001774           JUNCTION        5.63          0.974        0.076
  YS02001779           JUNCTION        5.35          0.680        0.000
  YS02001882           JUNCTION        0.80          0.626        0.204
  YS02001884           JUNCTION        0.84          0.659        0.211
  YS02001759           JUNCTION        5.66          1.070        0.140
  YS02001887           JUNCTION        0.93          0.745        0.205
  YS02001890           JUNCTION        0.96          0.760        0.000
  YS02001898           JUNCTION        0.76          0.529        0.211
  YS02001901           JUNCTION        0.90          0.671        0.199
  YS02001904           JUNCTION        0.87          0.636        0.214
  YS02001907           JUNCTION        1.49          0.950        0.000
  YS02001910           JUNCTION        1.01          0.778        0.322
  YS02001915           JUNCTION        0.79          0.591        0.409
  YS02001918           JUNCTION        0.53          0.265        0.545
  YS02001619           JUNCTION        5.21          0.563        0.047
  YS02001629           JUNCTION        5.21          0.470        0.000
  YS02001641           JUNCTION        5.62          0.946        0.154
  YS02001644           JUNCTION        5.62          0.920        0.000
  YS02001652           JUNCTION        5.40          1.130        0.000
  YS02001655           JUNCTION        5.24          1.200        0.000
  YS02001920           JUNCTION        0.57          0.339        0.801
  YS02001658           JUNCTION        5.01          1.300        0.000
  YS02001661           JUNCTION        0.21          1.390        0.000
  YS02001622           JUNCTION        5.24          0.558        0.062
  YS02001633           JUNCTION        5.60          0.964        0.096
  YS02001649           JUNCTION        5.64          1.050        0.000
  YS02001757           JUNCTION        5.74          1.171        0.039
  YS02001895           JUNCTION        0.78          0.560        0.190
  YS02001625           JUNCTION        5.41          0.780        0.000
  YS02163301           JUNCTION        5.53          0.914        0.116
  YS02163601           JUNCTION        5.64          1.024        0.056
  YS02164001           JUNCTION        5.61          0.950        0.150
  YS02001647           JUNCTION        5.40          0.805        0.095
  YS02006553           JUNCTION        1.55          0.966        0.224
  YS02006561           JUNCTION        0.67          0.281        0.869
  YS02006556           JUNCTION        1.24          0.879        0.471
  YS02006558           JUNCTION        1.20          0.859        0.541
  YS02001783           JUNCTION        1.44          1.088        0.512
  YS02001784           JUNCTION        1.48          0.812        0.678
  YS02001786           JUNCTION        1.44          0.911        0.519
  YS02001788           JUNCTION        1.42          1.019        0.461
  YS02001790           JUNCTION        2.34          1.157        0.000
  YS02001791           JUNCTION        2.47          1.690        0.230
  YS02001793           JUNCTION        2.78          1.885        0.715
  
  
  *********************
  Node Flooding Summary
  *********************
  
  Flooding refers to all water that overflows a node, whether it ponds or not.
  --------------------------------------------------------------------------
                                                             Total   Maximum
                                 Maximum   Time of Max       Flood    Ponded
                        Hours       Rate    Occurrence      Volume     Depth
  Node                 Flooded       LPS   days hr:min    10^6 ltr    Meters
  --------------------------------------------------------------------------
  YS02001779              2.20    256.57      0  03:29       0.622     0.000
  YS02001890              0.01      1.53      0  02:52       0.000     0.000
  YS02001907              0.39    278.66      0  02:58       0.212     0.000
  YS02001629              0.01     24.81      0  02:42       0.000     0.000
  YS02001644              3.66    972.55      0  03:28       4.984     0.000
  YS02001652              0.01     22.58      0  03:13       0.000     0.000
  YS02001655              0.01     21.90      0  03:12       0.000     0.000
  YS02001658              0.01     13.52      0  03:08       0.000     0.000
  YS02001661              0.01    175.69      0  03:13       0.001     0.000
  YS02001649              0.07     51.60      0  03:13       0.004     0.000
  YS02001625              0.81    167.02      0  03:01       0.226     0.000
  YS02001790              0.01    126.40      0  02:26       0.000     0.000
  JK-storage              2.09    836.22      0  03:30       3.274     0.000
  XR-storage              4.83    581.59      0  03:20       3.273     0.000
  
  
  **********************
  Storage Volume Summary
  **********************
  
  --------------------------------------------------------------------------------------------------
                         Average     Avg  Evap Exfil       Maximum     Max    Time of Max    Maximum
                          Volume    Pcnt  Pcnt  Pcnt        Volume    Pcnt     Occurrence    Outflow
  Storage Unit           1000 m3    Full  Loss  Loss       1000 m3    Full    days hr:min        LPS
  --------------------------------------------------------------------------------------------------
  JK-storage               0.146      50     0     0         0.291     100       0  02:27     600.00
  CC-storage               2.914      19     0     0         3.843      24       0  04:04     400.00
  XR-storage               0.907      98     0     0         0.926     100       0  02:13     380.00
  
  
  ***********************
  Outfall Loading Summary
  ***********************
  
  -----------------------------------------------------------
                         Flow       Avg       Max       Total
                         Freq      Flow      Flow      Volume
  Outfall Node           Pcnt       LPS       LPS    10^6 ltr
  -----------------------------------------------------------
  WSC                  100.00    629.80    978.37      15.360
  3                     89.77    211.70    528.61       3.999
  4                     59.74     88.32    237.02       1.196
  5                      0.00      0.00      0.00       0.000
  -----------------------------------------------------------
  System                62.37    929.82   1699.00      20.555
  
  
  ********************
  Link Flow Summary
  ********************
  
  -----------------------------------------------------------------------------
                                 Maximum  Time of Max   Maximum    Max/    Max/
                                  |Flow|   Occurrence   |Veloc|    Full    Full
  Link                 Type          LPS  days hr:min     m/sec    Flow   Depth
  -----------------------------------------------------------------------------
  WS02003066WSF200     CONDUIT    672.19     0  03:05      2.90    0.11    0.26
  WS02006287WS02006284 CONDUIT    375.44     0  03:02      1.98    0.17    0.29
  WS02006284WS02006280 CONDUIT    375.54     0  03:02      2.22    0.16    0.27
  WS02006280WS02006229 CONDUIT    375.57     0  03:02      3.58    0.08    0.19
  WS02006229WS02006228 CONDUIT    665.38     0  03:02      1.32    2.20    1.00
  WS02006256WS02006235 CONDUIT    149.96     0  00:15      2.14    1.59    1.00
  WS02006253WS02006251 CONDUIT     80.82     0  03:01      0.46    0.24    1.00
  WS02006252WS02006251 CONDUIT    400.72     0  03:30      3.19    1.47    1.00
  WS02006251WS02006249 CONDUIT    480.68     0  03:01      1.26    1.39    0.97
  WS02006249WS02006248 CONDUIT    352.02     0  03:30      1.12    1.93    0.93
  WS02006248WS02006247 CONDUIT    347.51     0  03:31      1.08    0.76    0.97
  WS02006247WS02006245 CONDUIT    346.12     0  03:31      1.03    2.74    1.00
  WS02006245WS02006243 CONDUIT    344.76     0  03:31      1.08    1.02    1.00
  WS02006243WS02006242 CONDUIT    339.86     0  03:31      0.96    0.73    1.00
  WS02006242WS02006240 CONDUIT    334.18     0  05:00      0.92    1.33    1.00
  WS02006240WS02006239 CONDUIT    334.26     0  05:00      0.95    1.05    1.00
  WS02006239WS02006238 CONDUIT    333.60     0  05:00      0.90    1.07    1.00
  WS02006238WS02006235 CONDUIT    331.86     0  05:00      0.89    0.74    1.00
  WS02006235WS02006234 CONDUIT    392.78     0  05:10      1.02    4.14    1.00
  WS02006234WS02006232 CONDUIT    392.71     0  05:10      1.02    0.79    1.00
  WS02006232WS02006231 CONDUIT    392.71     0  05:10      1.06    0.82    1.00
  WS02006231WS02006230 CONDUIT    392.64     0  05:20      1.34    5.96    1.00
  WS02006230WS02006229 CONDUIT    402.94     0  05:20      1.05    8.97    1.00
  WS02006228WS02006109 CONDUIT    665.30     0  03:02      1.32    2.91    1.00
  WS02006116WS02004401 CONDUIT    677.27     0  03:03      0.87    0.93    0.98
  WS02006115WS02006116 CONDUIT    679.11     0  03:03      0.91    0.87    0.91
  WS02006113WS02006111 CONDUIT    699.92     0  03:02      2.60    0.84    0.55
  WS02006112WS02006115 CONDUIT    679.51     0  03:02      0.88    0.40    0.95
  WS02006111WS02006112 CONDUIT    667.91     0  03:02      1.72    0.32    0.73
  WS02006110WS02006113 CONDUIT    667.86     0  03:03      1.52    0.61    0.82
  WS02006109WS02006110 CONDUIT    666.51     0  03:02      1.33    1.28    1.00
  WS02004411WS02004412 CONDUIT    672.16     0  03:04      1.04    0.95    0.77
  WS02004401WS02004402 CONDUIT    673.83     0  03:04      0.86    0.81    0.99
  WS02004413WS02003067 CONDUIT    672.06     0  03:06      1.26    0.29    0.64
  WS02004412WS02004413 CONDUIT    672.31     0  03:06      0.95    0.45    0.84
  WS02004410WS02004411 CONDUIT    672.62     0  03:04      1.04    0.92    0.77
  WS02004409WS02004410 CONDUIT    673.02     0  03:04      1.05    0.87    0.76
  WS02004407WS02004409 CONDUIT    673.70     0  03:03      1.54    0.24    0.55
  WS02004406WS02004407 CONDUIT    674.38     0  03:03      1.21    0.30    0.67
  WS02004405WS02004406 CONDUIT    674.21     0  03:03      0.86    1.33    1.00
  WS02004404WS02004405 CONDUIT    674.22     0  03:03      0.96    6.61    1.00
  WS02004403WS02004404 CONDUIT    674.01     0  03:03      0.86    0.49    1.00
  WS02004402WS02004403 CONDUIT    673.62     0  03:03      0.86    0.97    1.00
  WS02004139WS02001211 CONDUIT    374.12     0  04:40      0.58    0.47    0.58
  WS02004138WS02004139 CONDUIT    379.33     0  04:40      2.39    0.08    0.43
  WS02003067WS02003066 CONDUIT    672.08     0  03:05      1.37    0.22    0.45
  WS02001213WS02003059 CONDUIT    375.22     0  04:42      0.66    0.62    0.76
  WS02001212WS02001213 CONDUIT    375.88     0  04:41      1.28    0.58    0.44
  WS02001211WS02001212 CONDUIT    377.35     0  04:41      0.75    0.29    0.63
  WS02003072WS02003073 CONDUIT    976.53     0  03:08      1.75    2.11    0.49
  WS02003069WS02003072 CONDUIT    976.54     0  03:08      1.64    0.47    0.52
  WS02003060WS02003069 CONDUIT    976.39     0  03:07      1.88    0.38    0.47
  WS02003059WS02003060 CONDUIT    375.05     0  04:42      0.89    0.24    0.66
  HS02004901HS02004770 CONDUIT     17.70     0  03:01      0.07    0.07    0.39
  HS02004876HS02004881 CONDUIT     71.90     0  03:01      0.92    0.76    0.11
  HS02004870HS02004876 CONDUIT     58.03     0  03:01      0.63    0.04    0.13
  HS02004842HS02004848 CONDUIT     11.42     0  03:01      0.05    0.01    0.30
  HS02004837HS02004842 CONDUIT     11.94     0  03:02      0.42    0.01    0.32
  HS02004830HS02004837 CONDUIT     41.69     0  03:01      0.56    0.04    0.11
  HS02004824HS02004830 CONDUIT     41.67     0  03:01      0.58    0.05    0.10
  HS02004817HS02004824 CONDUIT     81.58     0  03:01      0.25    0.04    0.47
  HS02004770HS02004777 CONDUIT     90.21     0  03:01      0.32    0.16    0.41
  HS02004799HS02004480 CONDUIT    226.97     0  03:01      0.78    0.29    0.42
  HS02004792HS02004799 CONDUIT    206.60     0  03:01      0.88    0.13    0.33
  HS02004788HS02004792 CONDUIT    118.94     0  03:01      1.01    0.08    0.17
  HS02004785HS02004788 CONDUIT     89.52     0  03:02      0.66    0.67    0.19
  HS02004777HS02004785 CONDUIT     89.64     0  03:01      0.38    0.11    0.33
  HS02004480HS02004478 CONDUIT    269.12     0  03:01      1.20    1.13    0.32
  HS02004479HS02004480 CONDUIT     44.17     0  03:02      0.23    0.04    0.40
  HS02004862HS02004870 CONDUIT     44.23     0  03:01      0.64    0.05    0.10
  HS02004848HS02004852 CONDUIT     20.44     0  03:01      0.44    0.02    0.07
  HS02004856HS02004862 CONDUIT     30.56     0  03:01      0.47    0.03    0.09
  HS02004852HS02004856 CONDUIT     20.26     0  03:01      0.24    0.02    0.12
  HS02004802HS02004478 CONDUIT    106.59     0  03:02      0.45    0.09    0.35
  HS02004478WS02006287 CONDUIT    375.26     0  03:01      1.68    0.11    0.25
  HS02004817HS02004807 CONDUIT     82.18     0  03:01      0.19    0.05    0.62
  HS02004807HS02004802 CONDUIT    106.49     0  03:01      0.38    0.20    0.40
  YS02001759YS02001757 CONDUIT    696.25     0  02:58      0.89    0.49    1.00
  YS02001762YS02001759 CONDUIT    353.20     0  02:57      0.45    0.41    1.00
  YS02001765YS02001762 CONDUIT    352.99     0  02:57      0.45    0.33    1.00
  YS02001770YS02001767 CONDUIT    352.36     0  02:57      0.45    1.40    1.00
  YS02001774YS02001770 CONDUIT    255.80     0  03:29      0.33    0.16    1.00
  YS02001779YS02001774 CONDUIT    256.63     0  03:29      0.33    0.13    1.00
  YS02001649YS02001757 CONDUIT    960.82     0  02:51      1.22    0.58    1.00
  YS02001767YS02001765 CONDUIT    353.15     0  02:57      0.45    0.44    1.00
  YS02006561YS02001783 CONDUIT    964.14     0  03:00      2.13    0.50    1.00
  YS02001783YS02001784 CONDUIT    964.10     0  03:00      1.92    1.33    1.00
  YS02001784YS02001785 CONDUIT    965.09     0  03:00      1.92    2.25    1.00
  YS02001788YS02001790 CONDUIT    965.17     0  02:59      2.14    0.71    1.00
  YS02001790YS02001791 CONDUIT    965.39     0  03:01      2.53    1.05    1.00
  YS02001791YS02001793 CONDUIT    965.46     0  03:01      5.03    0.41    1.00
  YS02001910YS02001907 CONDUIT    433.33     0  02:54      0.55    0.24    1.00
  YS02001786YS02001788 CONDUIT    965.23     0  03:01      2.08    1.86    1.00
  YS02001915YS02001910 CONDUIT    433.44     0  02:54      0.55    0.22    1.00
  YS02001918YS02001915 CONDUIT    198.19     0  02:54      0.44    0.11    1.00
  YS02001923YS02001920 CONDUIT    194.49     0  02:54      0.68    0.09    1.00
  YS02001926YS02001923 CONDUIT    222.72     0  02:54      0.79    0.32    0.89
  YS02001929YS02001926 CONDUIT    187.88     0  02:54      0.84    0.09    0.79
  YS02001920YS02001918 CONDUIT    197.47     0  02:54      0.67    0.19    1.00
  YS02001629YS02163301 CONDUIT    212.88     0  02:50      0.27    0.26    1.00
  YS02001619YS02001622 CONDUIT    257.53     0  03:01      0.61    0.38    1.00
  YS02001622YS02001625 CONDUIT    257.22     0  03:01      0.33    0.14    1.00
  YS02001625YS02001629 CONDUIT    212.96     0  02:50      0.27    0.10    1.00
  YS02163301YS02001633 CONDUIT    212.73     0  02:50      0.27    0.20    1.00
  YS02163601YS02164001 CONDUIT    450.64     0  02:51      0.57    0.40    1.00
  YS02164001YS02001641 CONDUIT    450.38     0  02:51      0.57    0.61    1.00
  YS02001641YS02001644 CONDUIT    450.38     0  02:51      0.57    1.46    1.00
  YS02001647YS02001649 CONDUIT    685.56     0  02:51      0.87    0.36    1.00
  YS02006553YS02006556 CONDUIT    666.88     0  03:17      0.85    0.57    1.00
  YS02006556YS02006558 CONDUIT    667.08     0  03:17      0.85    0.53    1.00
  YSB6556YSB1171       CONDUIT     24.81     0  03:03      0.09    0.03    0.67
  YS02001907YS02006553 CONDUIT    666.90     0  03:17      0.74    0.78    1.00
  YS02006558YS02006561 CONDUIT    964.00     0  03:00      3.41    2.13    1.00
  YS02001633YS02163601 CONDUIT    450.65     0  02:51      0.57    0.47    1.00
  YS02001644YS02001647 CONDUIT    685.67     0  02:51      0.87    0.40    1.00
  YS02001745YS02001748 CONDUIT    498.77     0  02:45      1.48    0.19    0.94
  YS02001748YS02001751 CONDUIT    312.18     0  02:34      1.05    0.16    1.00
  YS02001751YS02001754 CONDUIT    309.27     0  03:00      0.88    0.15    1.00
  YS02001754YS02001757 CONDUIT    309.34     0  03:00      0.39    0.12    1.00
  YS02001882YS02001884 CONDUIT     20.20     0  02:45      0.09    0.02    1.00
  YS02001884YS02001887 CONDUIT     27.37     0  02:30      0.05    0.04    1.00
  YS02001890YS02001895 CONDUIT    453.61     0  03:01      0.58    0.21    1.00
  YS02001895YS02001898 CONDUIT    453.78     0  03:01      0.58    0.79    1.00
  YS02001898YS02001901 CONDUIT    453.75     0  03:01      0.58    0.29    1.00
  YS02001901YS02001904 CONDUIT    453.63     0  03:01      0.58    0.70    1.00
  YS02001904YS02001907 CONDUIT    453.70     0  03:01      0.58    0.16    1.00
  YS02001887YS02001890 CONDUIT    453.61     0  03:01      0.58    0.78    1.00
  YS02001652YS02001649 CONDUIT    375.40     0  03:01      0.50    0.19    1.00
  YS02001655YS02001652 CONDUIT    375.20     0  03:01      0.93    0.18    1.00
  YS02001658YS02001655 CONDUIT    375.28     0  03:01      1.21    0.16    1.00
  YS02001661YS02001658 CONDUIT    498.22     0  02:42      1.56    0.20    1.00
  YS02001664YS02001661 CONDUIT    702.08     0  02:56      1.61    0.22    0.72
  YSB1154YSB6556       CONDUIT     24.91     0  03:01      0.18    0.04    0.56
  YSB1174YSB1171       CONDUIT     18.78     0  03:01      0.07    0.03    0.68
  YSB1171HS02004479    CONDUIT     42.82     0  03:02      0.54    0.03    0.53
  HS02004881HS02006253 CONDUIT     79.15     0  03:01      1.60    0.02    0.31
  YS02001793JiankangQianchi CONDUIT    965.62     0  03:00     12.18    0.08    1.00
  YS02001757CaochengTiaoxuchi CONDUIT   1833.92     0  02:52      2.49    0.81    1.00
  WSF200WS02003060     CONDUIT    672.48     0  03:05      1.98    0.15    0.37
  1                    CONDUIT    978.37     0  03:09      3.31    0.34    0.40
  2                    CONDUIT    237.02     0  03:02      6.09    0.57    0.54
  3                    CONDUIT    528.61     0  03:10      9.88    0.84    0.71
  4                    CONDUIT      0.00     0  00:00      0.00    0.00    0.00
  CC-Pump-1            PUMP       200.00     0  02:30              1.00
  CC-Pump-2            PUMP       200.00     0  02:00              1.00
  JK-Pump-1            PUMP       300.00     0  00:20              1.00
  JK-Pump-2            PUMP       300.00     0  02:40              1.00
  XR-Pump-1            PUMP        95.00     0  02:10              1.00
  XR-Pump-2            PUMP        95.00     0  01:20              1.00
  XR-Pump-3            PUMP        95.00     0  00:20              1.00
  XR-Pump-4            PUMP        95.00     0  00:00              1.00
  
  
  ***************************
  Flow Classification Summary
  ***************************
  
  -------------------------------------------------------------------------------------
                      Adjusted    ---------- Fraction of Time in Flow Class ---------- 
                       /Actual         Up    Down  Sub   Sup   Up    Down  Norm  Inlet 
  Conduit               Length    Dry  Dry   Dry   Crit  Crit  Crit  Crit  Ltd   Ctrl  
  -------------------------------------------------------------------------------------
  WS02003066WSF200        1.00   0.04  0.01  0.00  0.00  0.95  0.00  0.00  0.64  0.00
  WS02006287WS02006284    1.00   0.03  0.01  0.00  0.60  0.36  0.00  0.00  0.65  0.00
  WS02006284WS02006280    1.00   0.04  0.00  0.00  0.00  0.00  0.00  0.96  0.00  0.00
  WS02006280WS02006229    1.00   0.04  0.00  0.00  0.00  0.00  0.00  0.96  0.00  0.00
  WS02006229WS02006228    1.00   0.00  0.00  0.00  1.00  0.00  0.00  0.00  0.00  0.00
  WS02006256WS02006235    1.00   0.00  0.00  0.00  1.00  0.00  0.00  0.00  0.00  0.00
  WS02006253WS02006251    1.00   0.02  0.01  0.00  0.96  0.00  0.00  0.00  0.00  0.00
  WS02006252WS02006251    1.00   0.07  0.00  0.00  0.00  0.00  0.93  0.00  0.00  0.00
  WS02006251WS02006249    1.00   0.00  0.00  0.00  1.00  0.00  0.00  0.00  0.23  0.00
  WS02006249WS02006248    1.00   0.00  0.00  0.00  0.92  0.00  0.07  0.00  0.00  0.00
  WS02006248WS02006247    1.00   0.00  0.00  0.00  0.98  0.00  0.00  0.02  0.11  0.00
  WS02006247WS02006245    1.00   0.00  0.00  0.00  0.98  0.00  0.00  0.01  0.00  0.00
  WS02006245WS02006243    1.00   0.01  0.00  0.00  0.96  0.00  0.00  0.03  0.01  0.00
  WS02006243WS02006242    1.00   0.01  0.00  0.00  0.99  0.00  0.00  0.00  0.18  0.00
  WS02006242WS02006240    1.00   0.00  0.00  0.00  1.00  0.00  0.00  0.00  0.00  0.00
  WS02006240WS02006239    1.00   0.00  0.00  0.00  0.97  0.00  0.00  0.02  0.01  0.00
  WS02006239WS02006238    1.00   0.00  0.00  0.00  1.00  0.00  0.00  0.00  0.01  0.00
  WS02006238WS02006235    1.00   0.00  0.00  0.00  1.00  0.00  0.00  0.00  0.00  0.00
  WS02006235WS02006234    1.00   0.00  0.00  0.00  0.97  0.00  0.03  0.00  0.00  0.00
  WS02006234WS02006232    1.00   0.00  0.00  0.00  1.00  0.00  0.00  0.00  0.04  0.00
  WS02006232WS02006231    1.00   0.00  0.00  0.00  0.99  0.00  0.00  0.00  0.00  0.00
  WS02006231WS02006230    1.00   0.00  0.00  0.00  0.79  0.00  0.21  0.00  0.00  0.00
  WS02006230WS02006229    1.00   0.00  0.00  0.00  0.99  0.00  0.00  0.01  0.01  0.00
  WS02006228WS02006109    1.00   0.00  0.00  0.00  1.00  0.00  0.00  0.00  0.00  0.00
  WS02006116WS02004401    1.00   0.02  0.00  0.00  0.98  0.00  0.00  0.00  0.00  0.00
  WS02006115WS02006116    1.00   0.02  0.00  0.00  0.97  0.00  0.00  0.00  0.00  0.00
  WS02006113WS02006111    1.00   0.01  0.00  0.00  0.00  0.99  0.00  0.00  0.10  0.00
  WS02006112WS02006115    1.00   0.01  0.01  0.00  0.97  0.00  0.00  0.00  0.00  0.00
  WS02006111WS02006112    1.00   0.01  0.00  0.00  0.98  0.00  0.00  0.00  0.89  0.00
  WS02006110WS02006113    1.00   0.00  0.01  0.00  0.99  0.00  0.00  0.00  0.00  0.00
  WS02006109WS02006110    1.00   0.00  0.00  0.00  1.00  0.00  0.00  0.00  0.00  0.00
  WS02004411WS02004412    1.00   0.03  0.00  0.00  0.97  0.00  0.00  0.00  0.00  0.00
  WS02004401WS02004402    1.00   0.03  0.00  0.00  0.97  0.00  0.00  0.00  0.00  0.00
  WS02004413WS02003067    1.00   0.03  0.01  0.00  0.00  0.00  0.96  0.00  0.00  0.00
  WS02004412WS02004413    1.00   0.03  0.00  0.00  0.97  0.00  0.00  0.00  0.02  0.00
  WS02004410WS02004411    1.00   0.03  0.00  0.00  0.97  0.00  0.00  0.00  0.02  0.00
  WS02004409WS02004410    1.00   0.03  0.00  0.00  0.97  0.00  0.00  0.00  0.03  0.00
  WS02004407WS02004409    1.00   0.03  0.00  0.00  0.97  0.00  0.00  0.00  0.90  0.00
  WS02004406WS02004407    1.00   0.00  0.03  0.00  0.97  0.00  0.00  0.00  0.00  0.00
  WS02004405WS02004406    1.00   0.00  0.00  0.00  1.00  0.00  0.00  0.00  0.03  0.00
  WS02004404WS02004405    1.00   0.00  0.00  0.00  1.00  0.00  0.00  0.00  0.00  0.00
  WS02004403WS02004404    1.00   0.00  0.03  0.00  0.97  0.00  0.00  0.00  0.00  0.00
  WS02004402WS02004403    1.00   0.03  0.00  0.00  0.97  0.00  0.00  0.00  0.00  0.00
  WS02004139WS02001211    1.00   0.00  0.00  0.00  1.00  0.00  0.00  0.00  0.00  0.00
  WS02004138WS02004139    1.00   0.00  0.00  0.00  1.00  0.00  0.00  0.00  1.00  0.00
  WS02003067WS02003066    1.00   0.04  0.00  0.00  0.95  0.00  0.00  0.00  0.00  0.00
  WS02001213WS02003059    1.00   0.00  0.00  0.00  1.00  0.00  0.00  0.00  0.00  0.00
  WS02001212WS02001213    1.00   0.00  0.00  0.00  0.88  0.00  0.12  0.00  0.00  0.00
  WS02001211WS02001212    1.00   0.00  0.00  0.00  1.00  0.00  0.00  0.00  0.00  0.00
  WS02003072WS02003073    1.00   0.00  0.00  0.00  0.00  0.00  0.00  1.00  0.00  0.00
  WS02003069WS02003072    1.00   0.00  0.00  0.00  1.00  0.00  0.00  0.00  0.23  0.00
  WS02003060WS02003069    1.00   0.00  0.00  0.00  0.99  0.01  0.00  0.00  0.13  0.00
  WS02003059WS02003060    1.00   0.00  0.00  0.00  1.00  0.00  0.00  0.00  0.02  0.00
  HS02004901HS02004770    1.00   0.04  0.00  0.00  0.96  0.00  0.00  0.00  0.00  0.00
  HS02004876HS02004881    1.00   0.00  0.00  0.00  0.91  0.08  0.00  0.00  0.00  0.00
  HS02004870HS02004876    1.00   0.00  0.00  0.00  1.00  0.00  0.00  0.00  0.95  0.00
  HS02004842HS02004848    1.00   0.00  0.04  0.00  0.96  0.00  0.00  0.00  0.58  0.00
  HS02004837HS02004842    1.00   0.00  0.00  0.00  1.00  0.00  0.00  0.00  0.11  0.00
  HS02004830HS02004837    1.00   0.00  0.00  0.00  1.00  0.00  0.00  0.00  0.99  0.00
  HS02004824HS02004830    1.00   0.00  0.00  0.00  1.00  0.00  0.00  0.00  0.00  0.00
  HS02004817HS02004824    1.00   0.00  0.00  0.00  1.00  0.00  0.00  0.00  1.00  0.00
  HS02004770HS02004777    1.00   0.00  0.04  0.00  0.96  0.00  0.00  0.00  0.03  0.00
  HS02004799HS02004480    1.00   0.00  0.01  0.00  0.96  0.00  0.04  0.00  0.00  0.00
  HS02004792HS02004799    1.00   0.00  0.00  0.00  1.00  0.00  0.00  0.00  0.98  0.00
  HS02004788HS02004792    1.00   0.00  0.00  0.00  1.00  0.00  0.00  0.00  0.98  0.00
  HS02004785HS02004788    1.00   0.00  0.00  0.00  1.00  0.00  0.00  0.00  0.00  0.00
  HS02004777HS02004785    1.00   0.00  0.00  0.00  1.00  0.00  0.00  0.00  0.14  0.00
  HS02004480HS02004478    1.00   0.04  0.00  0.00  0.66  0.00  0.00  0.30  0.00  0.00
  HS02004479HS02004480    1.00   0.01  0.00  0.00  0.99  0.00  0.00  0.00  0.12  0.00
  HS02004862HS02004870    1.00   0.00  0.00  0.00  1.00  0.00  0.00  0.00  0.05  0.00
  HS02004848HS02004852    1.00   0.04  0.00  0.00  0.96  0.00  0.00  0.00  0.61  0.00
  HS02004856HS02004862    1.00   0.00  0.05  0.00  0.95  0.00  0.00  0.00  0.80  0.00
  HS02004852HS02004856    1.00   0.04  0.00  0.00  0.96  0.00  0.00  0.00  0.85  0.00
  HS02004802HS02004478    1.00   0.04  0.00  0.00  0.96  0.00  0.00  0.00  0.03  0.00
  HS02004478WS02006287    1.00   0.05  0.00  0.00  0.72  0.24  0.00  0.00  0.66  0.00
  HS02004817HS02004807    1.00   0.00  0.04  0.00  0.96  0.00  0.00  0.00  0.01  0.00
  HS02004807HS02004802    1.00   0.04  0.00  0.00  0.96  0.00  0.00  0.00  0.00  0.00
  YS02001759YS02001757    1.00   0.00  0.00  0.00  1.00  0.00  0.00  0.00  0.16  0.00
  YS02001762YS02001759    1.00   0.00  0.00  0.00  1.00  0.00  0.00  0.00  0.04  0.00
  YS02001765YS02001762    1.00   0.00  0.00  0.00  1.00  0.00  0.00  0.00  0.16  0.00
  YS02001770YS02001767    1.00   0.00  0.00  0.00  1.00  0.00  0.00  0.00  0.00  0.00
  YS02001774YS02001770    1.00   0.00  0.04  0.00  0.96  0.00  0.00  0.00  0.04  0.00
  YS02001779YS02001774    1.00   0.00  0.00  0.00  1.00  0.00  0.00  0.00  0.21  0.00
  YS02001649YS02001757    1.00   0.00  0.00  0.00  1.00  0.00  0.00  0.00  0.17  0.00
  YS02001767YS02001765    1.00   0.00  0.00  0.00  1.00  0.00  0.00  0.00  0.00  0.00
  YS02006561YS02001783    1.00   0.05  0.00  0.00  0.37  0.58  0.00  0.00  0.54  0.00
  YS02001783YS02001784    1.00   0.00  0.05  0.00  0.95  0.00  0.00  0.00  0.01  0.00
  YS02001784YS02001785    1.00   0.00  0.00  0.00  1.00  0.00  0.00  0.00  0.20  0.00
  YS02001788YS02001790    1.00   0.00  0.00  0.00  0.48  0.52  0.00  0.00  0.50  0.00
  YS02001790YS02001791    1.00   0.00  0.00  0.00  0.45  0.55  0.00  0.00  0.41  0.00
  YS02001791YS02001793    1.00   0.00  0.00  0.00  0.46  0.54  0.00  0.00  0.01  0.00
  YS02001910YS02001907    1.00   0.00  0.00  0.00  1.00  0.00  0.00  0.00  0.13  0.00
  YS02001786YS02001788    1.00   0.00  0.00  0.00  0.44  0.56  0.00  0.00  0.00  0.00
  YS02001915YS02001910    1.00   0.00  0.00  0.00  0.99  0.01  0.00  0.00  0.18  0.00
  YS02001918YS02001915    1.00   0.00  0.00  0.00  1.00  0.00  0.00  0.00  0.58  0.00
  YS02001923YS02001920    1.00   0.00  0.00  0.00  1.00  0.00  0.00  0.00  0.85  0.00
  YS02001926YS02001923    1.00   0.00  0.03  0.00  0.14  0.00  0.83  0.00  0.00  0.00
  YS02001929YS02001926    1.00   0.00  0.04  0.00  0.96  0.00  0.00  0.00  0.78  0.00
  YS02001920YS02001918    1.00   0.00  0.00  0.00  1.00  0.00  0.00  0.00  0.00  0.00
  YS02001629YS02163301    1.00   0.04  0.00  0.00  0.95  0.00  0.00  0.00  0.00  0.00
  YS02001619YS02001622    1.00   0.04  0.00  0.00  0.96  0.00  0.00  0.00  0.00  0.00
  YS02001622YS02001625    1.00   0.04  0.00  0.00  0.96  0.00  0.00  0.00  0.07  0.00
  YS02001625YS02001629    1.00   0.04  0.01  0.00  0.93  0.00  0.01  0.00  0.00  0.00
  YS02163301YS02001633    1.00   0.00  0.04  0.00  0.96  0.00  0.00  0.00  0.00  0.00
  YS02163601YS02164001    1.00   0.00  0.03  0.00  0.97  0.00  0.00  0.00  0.00  0.00
  YS02164001YS02001641    1.00   0.00  0.03  0.00  0.97  0.00  0.00  0.00  0.06  0.00
  YS02001641YS02001644    1.00   0.00  0.00  0.00  1.00  0.00  0.00  0.00  0.00  0.00
  YS02001647YS02001649    1.00   0.00  0.05  0.00  0.95  0.00  0.00  0.00  0.01  0.00
  YS02006553YS02006556    1.00   0.00  0.00  0.00  1.00  0.00  0.00  0.00  0.03  0.00
  YS02006556YS02006558    1.00   0.00  0.00  0.00  1.00  0.00  0.00  0.00  0.00  0.00
  YSB6556YSB1171          1.00   0.01  0.02  0.00  0.96  0.00  0.00  0.00  0.00  0.00
  YS02001907YS02006553    1.00   0.00  0.00  0.00  1.00  0.00  0.00  0.00  0.00  0.00
  YS02006558YS02006561    1.00   0.05  0.00  0.00  0.18  0.77  0.00  0.00  0.48  0.00
  YS02001633YS02163601    1.00   0.00  0.00  0.00  1.00  0.00  0.00  0.00  0.16  0.00
  YS02001644YS02001647    1.00   0.00  0.05  0.00  0.95  0.00  0.00  0.00  0.00  0.00
  YS02001745YS02001748    1.00   0.00  0.00  0.00  0.89  0.01  0.00  0.10  0.06  0.00
  YS02001748YS02001751    1.00   0.00  0.00  0.00  0.97  0.03  0.00  0.00  0.15  0.00
  YS02001751YS02001754    1.00   0.00  0.00  0.00  0.94  0.00  0.00  0.06  0.02  0.00
  YS02001754YS02001757    1.00   0.00  0.00  0.00  1.00  0.00  0.00  0.00  0.20  0.00
  YS02001882YS02001884    1.00   0.04  0.00  0.00  0.95  0.00  0.00  0.00  0.00  0.00
  YS02001884YS02001887    1.00   0.03  0.01  0.00  0.96  0.00  0.00  0.00  0.00  0.00
  YS02001890YS02001895    1.00   0.00  0.05  0.00  0.95  0.00  0.00  0.00  0.00  0.00
  YS02001895YS02001898    1.00   0.05  0.00  0.00  0.95  0.00  0.01  0.00  0.00  0.00
  YS02001898YS02001901    1.00   0.05  0.00  0.00  0.95  0.00  0.00  0.00  0.02  0.00
  YS02001901YS02001904    1.00   0.05  0.00  0.00  0.95  0.00  0.00  0.00  0.00  0.00
  YS02001904YS02001907    1.00   0.00  0.05  0.00  0.95  0.00  0.00  0.00  0.00  0.00
  YS02001887YS02001890    1.00   0.00  0.00  0.00  0.99  0.00  0.00  0.00  0.00  0.00
  YS02001652YS02001649    1.00   0.00  0.00  0.00  1.00  0.00  0.00  0.00  0.18  0.00
  YS02001655YS02001652    1.00   0.00  0.00  0.00  0.94  0.00  0.00  0.05  0.02  0.00
  YS02001658YS02001655    1.00   0.00  0.04  0.00  0.93  0.03  0.00  0.00  0.11  0.00
  YS02001661YS02001658    1.00   0.04  0.00  0.00  0.89  0.07  0.00  0.00  0.06  0.00
  YS02001664YS02001661    1.00   0.04  0.00  0.00  0.86  0.10  0.00  0.00  0.22  0.00
  YSB1154YSB6556          1.00   0.04  0.00  0.00  0.96  0.00  0.00  0.00  0.02  0.00
  YSB1174YSB1171          1.00   0.02  0.01  0.00  0.97  0.00  0.00  0.00  0.00  0.00
  YSB1171HS02004479       1.00   0.01  0.00  0.00  0.97  0.00  0.00  0.01  0.11  0.00
  HS02004881HS02006253    1.00   0.02  0.00  0.00  0.86  0.01  0.00  0.11  0.69  0.00
  YS02001793JiankangQianchi    1.00   0.00  0.00  0.00  0.62  0.38  0.00  0.00  0.18  0.00
  YS02001757CaochengTiaoxuchi    1.00   0.00  0.07  0.00  0.91  0.02  0.00  0.00  0.00  0.00
  WSF200WS02003060        1.00   0.00  0.04  0.00  0.56  0.40  0.00  0.00  0.25  0.00
  1                       1.00   0.00  0.00  0.00  0.00  1.00  0.00  0.00  0.27  0.00
  2                       1.00   0.40  0.00  0.00  0.00  0.60  0.00  0.00  0.08  0.00
  3                       1.00   0.10  0.00  0.00  0.00  0.90  0.00  0.00  0.20  0.00
  4                       1.00   1.00  0.00  0.00  0.00  0.00  0.00  0.00  0.00  0.00
  
  
  *************************
  Conduit Surcharge Summary
  *************************
  
  ----------------------------------------------------------------------------
                                                           Hours        Hours 
                         --------- Hours Full --------   Above Full   Capacity
  Conduit                Both Ends  Upstream  Dnstream   Normal Flow   Limited
  ----------------------------------------------------------------------------
  WS02006229WS02006228        3.31      3.54      3.31      5.32         3.31
  WS02006256WS02006235        6.11      6.11      7.49      2.06         0.01
  WS02006253WS02006251        0.13      0.13      0.52      0.01         0.01
  WS02006252WS02006251        2.61      2.61      3.72      3.43         0.01
  WS02006251WS02006249        0.01      0.34      0.01      2.72         0.01
  WS02006249WS02006248        0.01      0.01      0.01      5.22         0.01
  WS02006248WS02006247        0.01      0.01      0.47      0.01         0.01
  WS02006247WS02006245        0.34      0.53      0.34      5.46         0.34
  WS02006245WS02006243        0.50      0.50      0.59      0.03         0.01
  WS02006243WS02006242        0.61      0.61      2.88      0.01         0.01
  WS02006242WS02006240        0.96      0.96      3.28      3.42         0.01
  WS02006240WS02006239        1.67      1.67      1.90      0.05         0.01
  WS02006239WS02006238        3.14      3.14      3.24      0.26         0.25
  WS02006238WS02006235        3.11      3.11      3.52      0.01         0.01
  WS02006235WS02006234        1.16      1.16      2.75      6.14         0.01
  WS02006234WS02006232        1.77      1.77      3.59      0.01         0.01
  WS02006232WS02006231        0.92      0.92      3.59      0.01         0.01
  WS02006231WS02006230        0.59      0.59      1.01      6.15         0.01
  WS02006230WS02006229        4.47      5.15      4.47      6.26         4.47
  WS02006228WS02006109        3.43      4.01      3.43      5.78         3.43
  WS02006112WS02006115        0.01      0.01      1.24      0.01         0.01
  WS02006111WS02006112        0.01      0.01      5.41      0.01         0.01
  WS02006110WS02006113        0.01      0.01      3.75      0.01         0.01
  WS02006109WS02006110        1.17      1.17      4.01      1.17         0.01
  WS02004401WS02004402        0.01      0.01      0.02      0.01         0.01
  WS02004406WS02004407        0.01      0.01      0.48      0.01         0.01
  WS02004405WS02004406        0.48      0.56      0.48      1.21         0.48
  WS02004404WS02004405        0.56      0.62      0.56      6.00         0.56
  WS02004403WS02004404        0.06      0.06      0.62      0.01         0.01
  WS02004402WS02004403        0.02      0.02      0.06      0.01         0.01
  WS02003072WS02003073        0.01      0.01      0.01      5.49         0.01
  HS02004480HS02004478        0.01      0.01      0.01      0.25         0.01
  YS02001759YS02001757        5.66      5.66      5.74      0.01         0.01
  YS02001762YS02001759        5.64      5.64      5.66      0.01         0.01
  YS02001765YS02001762        5.61      5.61      5.64      0.01         0.01
  YS02001770YS02001767        5.50      5.54      5.53      0.39         0.89
  YS02001774YS02001770        5.44      5.44      5.63      0.01         0.01
  YS02001779YS02001774        5.35      5.35      5.63      0.01         0.01
  YS02001649YS02001757        5.64      5.64      5.74      0.01         0.01
  YS02001767YS02001765        5.53      5.53      5.61      0.01         0.01
  YS02006561YS02001783        0.67      0.67      1.44      0.01         0.01
  YS02001783YS02001784        1.44      1.44      1.48      1.06         1.03
  YS02001784YS02001785        1.44      1.48      1.44      2.07         1.43
  YS02001788YS02001790        1.42      1.42      2.34      0.01         0.01
  YS02001790YS02001791        2.34      2.34      2.47      0.50         0.50
  YS02001791YS02001793        2.47      2.47      2.80      0.01         0.01
  YS02001910YS02001907        1.01      1.01      1.49      0.01         0.01
  YS02001786YS02001788        1.42      1.44      1.42      1.66         1.42
  YS02001915YS02001910        0.79      0.79      1.01      0.01         0.01
  YS02001918YS02001915        0.53      0.53      0.79      0.01         0.01
  YS02001923YS02001920        0.30      0.30      0.57      0.01         0.01
  YS02001920YS02001918        0.53      0.53      0.57      0.01         0.01
  YS02001629YS02163301        5.45      5.45      5.53      0.01         0.01
  YS02001619YS02001622        5.21      5.21      5.24      0.01         0.01
  YS02001622YS02001625        5.24      5.24      5.41      0.01         0.01
  YS02001625YS02001629        5.21      5.21      5.41      0.01         0.01
  YS02163301YS02001633        5.53      5.53      5.61      0.01         0.01
  YS02163601YS02164001        5.61      5.61      5.64      0.01         0.01
  YS02164001YS02001641        5.61      5.61      5.62      0.01         0.02
  YS02001641YS02001644        5.62      5.62      5.62      1.23         1.40
  YS02001647YS02001649        5.40      5.40      5.64      0.01         0.01
  YS02006553YS02006556        1.24      1.24      1.55      0.01         0.01
  YS02006556YS02006558        1.38      1.38      1.65      0.01         0.01
  YS02001907YS02006553        2.09      2.09      2.30      0.01         0.01
  YS02006558YS02006561        0.90      1.20      0.90      1.94         0.90
  YS02001633YS02163601        5.60      5.60      5.64      0.01         0.01
  YS02001644YS02001647        5.40      5.40      5.62      0.01         0.01
  YS02001745YS02001748        0.01      0.01      4.96      0.01         0.01
  YS02001748YS02001751        5.07      5.07      5.18      0.01         0.01
  YS02001751YS02001754        5.18      5.18      5.37      0.01         0.01
  YS02001754YS02001757        5.41      5.41      5.74      0.01         0.01
  YS02001882YS02001884        0.80      0.80      0.84      0.01         0.01
  YS02001884YS02001887        0.90      0.90      0.93      0.01         0.01
  YS02001890YS02001895        0.78      0.78      1.03      0.01         0.01
  YS02001895YS02001898        0.76      0.76      0.78      0.01         0.01
  YS02001898YS02001901        0.78      0.78      0.90      0.01         0.01
  YS02001901YS02001904        0.87      0.87      0.90      0.01         0.01
  YS02001904YS02001907        0.87      0.87      1.59      0.01         0.01
  YS02001887YS02001890        0.96      0.96      0.99      0.01         0.01
  YS02001652YS02001649        5.41      5.41      5.64      0.01         0.01
  YS02001655YS02001652        5.24      5.24      5.40      0.01         0.01
  YS02001658YS02001655        5.01      5.01      5.24      0.01         0.01
  YS02001661YS02001658        0.20      0.20      5.01      0.01         0.01
  YS02001664YS02001661        0.01      0.01      1.10      0.01         0.01
  YS02001793JiankangQianchi        2.78      2.78      3.62      0.01         0.01
  YS02001757CaochengTiaoxuchi        4.83      4.83      5.74      0.01         0.01
  
  
  ***************
  Pumping Summary
  ***************
  
  ---------------------------------------------------------------------------------------------------------
                                                  Min       Avg       Max     Total     Power    % Time Off
                        Percent   Number of      Flow      Flow      Flow    Volume     Usage    Pump Curve
  Pump                 Utilized   Start-Ups       LPS       LPS       LPS  10^6 ltr     Kw-hr    Low   High
  ---------------------------------------------------------------------------------------------------------
  CC-Pump-1               75.81           1      0.00    150.11    200.00     3.193      5.22    0.0   10.9
  CC-Pump-2               69.43           5      0.00    153.26    200.00     3.040      5.54    0.0   11.9
  JK-Pump-1               68.07           8      0.00    176.31    300.00     2.646     33.42    0.0    0.0
  JK-Pump-2               85.09           7      0.00    167.39    300.00     3.217     29.68    0.0    0.0
  XR-Pump-1               80.84           8      0.00     67.69     95.00     1.482      7.93    0.0    0.0
  XR-Pump-2               74.44          10      0.00     64.72     95.00     1.396      7.90    0.0    0.0
  XR-Pump-3               82.95           8      0.00     66.20     95.00     1.510      8.54    0.0    0.0
  XR-Pump-4               85.09           7      0.00     66.58     95.00     1.625      9.89    0.0    0.0
  

  Analysis begun on:  Fri Dec 24 10:36:10 2021
  Analysis ended on:  Fri Dec 24 10:36:15 2021
  Total elapsed time: 00:00:05