
  EPA STORM WATER MANAGEMENT MODEL - VERSION 5.1 (Build 5.3.0.dev0)
  --------------------------------------------------------------

  WARNING 04: minimum elevation drop used for Conduit WS02004404WS02004405
  WARNING 03: negative offset ignored for Link YS02001904YS02001907
  
  *********************************************************
  NOTE: The summary statistics displayed in this report are
  based on results found at every computational time step,  
  not just on results from each reporting time step.
  *********************************************************
  
  ****************
  Analysis Options
  ****************
  Flow Units ............... LPS
  Process Models:
    Rainfall/Runoff ........ YES
    RDII ................... NO
    Snowmelt ............... NO
    Groundwater ............ NO
    Flow Routing ........... YES
    Ponding Allowed ........ NO
    Water Quality .......... NO
  Infiltration Method ...... HORTON
  Flow Routing Method ...... DYNWAVE
  Surcharge Method ......... EXTRAN
  Starting Date ............ 08/28/2015 08:00:00
  Ending Date .............. 08/28/2015 15:50:00
  Antecedent Dry Days ...... 8.0
  Report Time Step ......... 00:01:00
  Wet Time Step ............ 00:01:00
  Dry Time Step ............ 00:01:00
  Routing Time Step ........ 5.00 sec
  Variable Time Step ....... YES
  Maximum Trials ........... 8
  Number of Threads ........ 4
  Head Tolerance ........... 0.001500 m
  
  
  **************************        Volume         Depth
  Runoff Quantity Continuity     hectare-m            mm
  **************************     ---------       -------
  Total Precipitation ......         5.151        11.277
  Evaporation Loss .........         0.000         0.000
  Infiltration Loss ........         1.323         2.897
  Surface Runoff ...........         2.817         6.167
  Final Storage ............         1.011         2.215
  Continuity Error (%) .....        -0.015
  
  
  **************************        Volume        Volume
  Flow Routing Continuity        hectare-m      10^6 ltr
  **************************     ---------     ---------
  Dry Weather Inflow .......         0.616         6.165
  Wet Weather Inflow .......         2.816        28.156
  Groundwater Inflow .......         0.000         0.000
  RDII Inflow ..............         0.000         0.000
  External Inflow ..........         0.102         1.024
  External Outflow .........         2.034        20.340
  Flooding Loss ............         1.035        10.355
  Evaporation Loss .........         0.000         0.000
  Exfiltration Loss ........         0.000         0.000
  Initial Stored Volume ....         0.076         0.761
  Final Stored Volume ......         0.630         6.299
  Continuity Error (%) .....        -2.462
  
  
  *************************
  Highest Continuity Errors
  *************************
  Node HS02004842 (17.04%)
  Node YS02001884 (11.39%)
  Node JK-storage (-10.52%)
  Node YS02001774 (4.71%)
  Node YSB1171 (3.39%)
  
  
  ***************************
  Time-Step Critical Elements
  ***************************
  Link WS02006252WS02006251 (50.70%)
  Link 3 (40.18%)
  Link WS02006238WS02006235 (4.05%)
  
  
  ********************************
  Highest Flow Instability Indexes
  ********************************
  Link WS02006113WS02006111 (34)
  Link YS02001629YS02163301 (32)
  Link YS02001619YS02001622 (32)
  Link YS02163601YS02164001 (32)
  Link YS02163301YS02001633 (32)
  
  
  *************************
  Routing Time Step Summary
  *************************
  Minimum Time Step           :     0.39 sec
  Average Time Step           :     0.79 sec
  Maximum Time Step           :     5.00 sec
  Percent in Steady State     :    -0.00
  Average Iterations per Step :     4.44
  Percent Not Converging      :    23.00
  
  
  ***************************
  Subcatchment Runoff Summary
  ***************************
  
  ------------------------------------------------------------------------------------------------------------------------------
                            Total      Total      Total      Total     Imperv       Perv      Total       Total     Peak  Runoff
                           Precip      Runon       Evap      Infil     Runoff     Runoff     Runoff      Runoff   Runoff   Coeff
  Subcatchment                 mm         mm         mm         mm         mm         mm         mm    10^6 ltr      LPS
  ------------------------------------------------------------------------------------------------------------------------------
  sub0                      11.28       0.00       0.00       0.79       9.22       0.00       9.22        0.01     1.44   0.818
  sub1                      11.28       0.00       0.00       1.24       8.78       0.00       8.78        0.06    10.11   0.778
  sub2                      11.28       0.00       0.00       4.17       6.20       0.00       6.20        0.06     9.79   0.549
  sub3                      11.28       0.00       0.00       4.17       6.16       0.00       6.16        0.14    22.44   0.546
  sub4                      11.28       0.00       0.00       1.24       8.63       0.00       8.63        0.18    27.35   0.765
  sub5                      11.28       0.00       0.00       0.79       9.17       0.00       9.17        0.10    18.00   0.813
  sub7                      11.28       0.00       0.00       1.01       9.01       0.00       9.01        0.03     5.34   0.799
  sub8                      11.28       0.00       0.00       1.01       9.00       0.00       9.00        0.06    10.08   0.798
  sub9                      11.28       0.00       0.00       1.01       8.99       0.00       8.99        0.04     7.58   0.798
  sub10                     11.28       0.00       0.00       0.90       9.08       0.00       9.08        0.10    17.43   0.805
  sub11                     11.28       0.00       0.00       0.90       9.10       0.00       9.10        0.11    18.56   0.807
  sub12                     11.28       0.00       0.00       1.47       8.62       0.00       8.62        0.08    13.79   0.765
  sub14                     11.28       0.00       0.00       1.01       8.99       0.00       8.99        0.09    14.98   0.797
  sub15                     11.28       0.00       0.00       3.38       6.91       0.00       6.91        0.12    20.76   0.613
  sub16                     11.28       0.00       0.00       3.72       6.64       0.00       6.64        0.07    12.34   0.589
  sub17                     11.28       0.00       0.00       3.61       6.73       0.00       6.73        0.06    10.18   0.597
  sub22                     11.28       0.00       0.00       4.85       5.64       0.00       5.64        0.36    62.58   0.500
  sub23                     11.28       0.00       0.00       4.17       6.23       0.00       6.23        0.30    52.29   0.553
  sub60                     11.28       0.00       0.00       1.35       7.08       0.00       7.08        2.14   214.31   0.627
  sub61                     11.28       0.00       0.00       1.92       7.22       0.00       7.22        2.23   246.69   0.640
  sub62                     11.28       0.00       0.00       0.90       7.84       0.00       7.84        2.41   259.66   0.695
  sub63                     11.28       0.00       0.00       3.27       6.33       0.00       6.33        1.92   219.77   0.561
  sub64                     11.28       0.00       0.00       1.69       6.79       0.00       6.79        2.06   204.52   0.602
  sub65                     11.28       0.00       0.00       1.47       6.90       0.00       6.90        2.12   208.50   0.612
  sub66                     11.28       0.00       0.00       3.27       5.83       0.00       5.83        1.79   183.42   0.517
  sub67                     11.28       0.00       0.00       0.90       8.30       0.00       8.30        2.56   301.39   0.736
  sub68                     11.28       0.00       0.00       1.58       7.60       0.00       7.60        2.34   264.96   0.674
  sub69                     11.28       0.00       0.00       1.69       7.90       0.00       7.90        1.85   237.25   0.701
  sub70                     11.28       8.07       0.00       6.54      10.49       0.03      10.52        2.41   252.63   0.544
  sub71                     11.28       0.00       0.00       0.90       7.63       0.00       7.63        1.80   186.96   0.676
  sub72                     11.28       0.00       0.00       0.79       6.02       0.00       6.02        1.23   100.40   0.534
  sub73                     11.28      10.24       0.00       7.30      11.40       0.02      11.42        2.68   238.40   0.531
  sub74                     11.28       0.00       0.00       8.46       2.36       0.00       2.36        0.94   126.51   0.209
  
  
  ******************
  Node Depth Summary
  ******************
  
  ---------------------------------------------------------------------------------
                                 Average  Maximum  Maximum  Time of Max    Reported
                                   Depth    Depth      HGL   Occurrence   Max Depth
  Node                 Type       Meters   Meters   Meters  days hr:min      Meters
  ---------------------------------------------------------------------------------
  WS02001211           JUNCTION     0.65     0.77     5.61     0  02:01        0.77
  WS02001212           JUNCTION     0.38     0.49     5.55     0  02:01        0.49
  WS02001213           JUNCTION     0.62     0.74     5.51     0  02:02        0.74
  WS02003069           JUNCTION     0.45     0.58     5.16     0  02:03        0.58
  WS02003072           JUNCTION     0.52     0.64     5.01     0  02:04        0.64
  WS02003073           JUNCTION     0.31     0.39     4.46     0  02:04        0.39
  WS02003060           JUNCTION     0.40     0.51     5.44     0  02:02        0.51
  WS02003066           JUNCTION     0.24     0.31     5.87     0  02:18        0.31
  WS02003059           JUNCTION     0.69     0.80     5.49     0  02:02        0.80
  WS02003067           JUNCTION     0.60     0.72     6.04     0  02:18        0.72
  WS02004401           JUNCTION     0.71     0.91     6.91     0  02:16        0.91
  WS02004402           JUNCTION     0.74     0.93     6.89     0  02:16        0.93
  WS02004403           JUNCTION     0.76     0.94     6.87     0  02:16        0.94
  WS02004404           JUNCTION     0.83     1.01     6.86     0  02:16        1.01
  WS02004406           JUNCTION     0.83     0.99     6.82     0  02:17        0.99
  WS02004409           JUNCTION     0.52     0.71     6.48     0  02:17        0.71
  WS02004410           JUNCTION     0.54     0.72     6.44     0  02:17        0.72
  WS02004411           JUNCTION     0.56     0.73     6.41     0  02:18        0.73
  WS02004412           JUNCTION     0.57     0.73     6.37     0  02:18        0.73
  WS02004413           JUNCTION     0.73     0.89     6.36     0  02:18        0.89
  WS02004405           JUNCTION     0.82     1.00     6.85     0  02:17        1.00
  WS02006109           JUNCTION     0.80     1.04     7.66     0  02:13        1.03
  WS02006110           JUNCTION     0.78     0.97     7.55     0  02:13        0.96
  WS02006111           JUNCTION     0.23     0.30     7.01     0  02:13        0.30
  WS02006112           JUNCTION     0.88     1.20     7.09     0  02:13        1.17
  WS02006113           JUNCTION     0.36     0.48     7.38     0  02:12        0.48
  WS02006115           JUNCTION     0.60     0.81     6.95     0  02:16        0.81
  WS02006116           JUNCTION     0.68     0.89     6.93     0  02:16        0.89
  WS02006230           JUNCTION     0.78     1.11     7.85     0  02:10        1.09
  WS02006231           JUNCTION     0.53     0.79     7.91     0  02:10        0.78
  WS02006232           JUNCTION     0.66     0.91     7.95     0  02:10        0.89
  WS02006234           JUNCTION     0.59     0.85     8.01     0  02:10        0.82
  WS02006235           JUNCTION     0.62     0.87     8.03     0  02:10        0.84
  WS02006238           JUNCTION     0.64     0.89     8.03     0  02:12        0.87
  WS02006240           JUNCTION     0.54     0.82     8.12     0  02:10        0.78
  WS02006242           JUNCTION     0.60     0.86     8.13     0  02:10        0.84
  WS02006243           JUNCTION     0.48     0.74     8.16     0  02:09        0.74
  WS02006245           JUNCTION     0.46     0.70     8.19     0  02:10        0.70
  WS02006247           JUNCTION     0.47     0.74     8.24     0  02:10        0.70
  WS02006248           JUNCTION     0.42     0.64     8.22     0  02:10        0.63
  WS02006249           JUNCTION     0.44     0.64     8.24     0  02:10        0.64
  WS02006239           JUNCTION     0.60     0.86     8.07     0  02:10        0.84
  WS02006251           JUNCTION     0.44     0.67     8.34     0  02:11        0.67
  WS02006252           JUNCTION     0.38     0.59     8.83     0  03:36        0.59
  WS02006253           JUNCTION     0.46     0.70     8.35     0  02:10        0.70
  WS02006256           JUNCTION     1.07     1.21     8.15     0  02:20        1.21
  WS02004138           JUNCTION     0.14     0.19     7.44     0  06:42        0.19
  WS02004407           JUNCTION     0.24     0.31     6.63     0  02:17        0.31
  WS02006228           JUNCTION     0.80     1.10     7.75     0  02:12        1.09
  WS02006229           JUNCTION     0.78     1.10     7.79     0  02:10        1.09
  WS02006280           JUNCTION     0.07     0.16     8.44     0  02:09        0.16
  WS02006284           JUNCTION     0.37     0.51     8.91     0  02:09        0.51
  WS02006287           JUNCTION     0.10     0.24     9.20     0  02:09        0.24
  WSF200               JUNCTION     0.23     0.32     5.56     0  02:17        0.32
  HS02004901           JUNCTION     0.13     0.25    10.07     0  02:07        0.25
  HS02004881           JUNCTION     0.01     0.03     9.06     0  02:08        0.03
  HS02004876           JUNCTION     0.05     0.11     9.14     0  02:03        0.11
  HS02004870           JUNCTION     0.02     0.05     9.34     0  02:09        0.05
  HS02004862           JUNCTION     0.02     0.06     9.44     0  02:09        0.06
  HS02004856           JUNCTION     0.08     0.11     9.54     0  02:09        0.11
  HS02004852           JUNCTION     0.01     0.04     9.55     0  02:09        0.04
  HS02004848           JUNCTION     0.01     0.04     9.64     0  02:09        0.04
  HS02004842           JUNCTION     0.33     0.37     9.64     0  02:09        0.37
  HS02004837           JUNCTION     0.03     0.06     9.64     0  02:09        0.06
  HS02004830           JUNCTION     0.04     0.07     9.54     0  02:09        0.07
  HS02004824           JUNCTION     0.02     0.05     9.45     0  02:10        0.05
  HS02004817           JUNCTION     0.44     0.56     9.40     0  02:09        0.56
  HS02004807           JUNCTION     0.13     0.23     9.40     0  02:09        0.23
  HS02004802           JUNCTION     0.17     0.26     9.39     0  02:09        0.26
  HS02004799           JUNCTION     0.13     0.28     9.49     0  02:07        0.28
  HS02004792           JUNCTION     0.04     0.11     9.63     0  02:07        0.11
  HS02004788           JUNCTION     0.03     0.08     9.98     0  02:08        0.08
  HS02004785           JUNCTION     0.05     0.15    10.05     0  02:08        0.15
  HS02004777           JUNCTION     0.15     0.27    10.06     0  02:07        0.27
  HS02004770           JUNCTION     0.12     0.24    10.07     0  02:07        0.24
  HS02004480           JUNCTION     0.09     0.22     9.46     0  02:07        0.22
  HS02004479           JUNCTION     0.12     0.26     9.46     0  02:08        0.26
  HS02004478           JUNCTION     0.06     0.15     9.38     0  02:08        0.15
  YS02001745           JUNCTION     0.69     0.88     8.40     0  03:12        0.88
  YS02001748           JUNCTION     1.09     2.27     9.35     0  02:27        1.38
  YS02001751           JUNCTION     1.28     2.20     9.08     0  02:14        2.05
  YS02001754           JUNCTION     1.53     2.11     8.72     0  02:14        2.02
  YS02001762           JUNCTION     1.73     2.03     8.43     0  03:11        2.01
  YS02001765           JUNCTION     1.69     1.98     8.43     0  03:14        1.96
  YS02001767           JUNCTION     1.65     1.93     8.42     0  03:14        1.91
  YS02001770           JUNCTION     1.65     1.91     8.41     0  03:14        1.89
  YS02001774           JUNCTION     1.72     1.97     8.40     0  03:11        1.96
  YS02001779           JUNCTION     1.46     1.68     8.37     0  02:27        1.68
  YS02001882           JUNCTION     0.47     1.19     7.90     0  02:56        1.18
  YS02001884           JUNCTION     0.56     1.28     7.90     0  02:56        1.27
  YS02001759           JUNCTION     1.77     2.07     8.43     0  03:14        2.05
  YS02001887           JUNCTION     0.64     1.37     7.91     0  02:56        1.36
  YS02001890           JUNCTION     0.67     1.40     7.91     0  02:56        1.39
  YS02001898           JUNCTION     0.44     1.15     7.88     0  02:56        1.14
  YS02001901           JUNCTION     0.56     1.28     7.88     0  02:58        1.26
  YS02001904           JUNCTION     0.53     1.24     7.87     0  02:58        1.24
  YS02001907           JUNCTION     0.87     1.59     7.88     0  03:00        1.57
  YS02001910           JUNCTION     0.65     1.37     7.88     0  02:57        1.37
  YS02001915           JUNCTION     0.45     1.16     7.88     0  02:56        1.16
  YS02001918           JUNCTION     0.21     0.81     7.88     0  02:58        0.81
  YS02001619           JUNCTION     1.25     1.54     8.47     0  02:24        1.48
  YS02001629           JUNCTION     1.60     1.85     8.40     0  02:23        1.84
  YS02001641           JUNCTION     1.70     1.95     8.39     0  02:26        1.93
  YS02001644           JUNCTION     1.71     1.92     8.35     0  02:26        1.92
  YS02001652           JUNCTION     1.55     2.16     8.76     0  02:52        2.10
  YS02001655           JUNCTION     1.31     2.20     9.05     0  02:12        2.00
  YS02001920           JUNCTION     0.30     0.88     7.88     0  02:58        0.87
  YS02001923           JUNCTION     0.15     0.62     7.88     0  02:58        0.62
  YS02001926           JUNCTION     0.21     0.44     7.88     0  02:57        0.44
  YS02001929           JUNCTION     0.10     0.17     7.87     0  02:58        0.17
  YS02001658           JUNCTION     1.03     2.30     9.44     0  02:24        1.62
  YS02001661           JUNCTION     0.80     2.46     9.86     0  02:51        1.23
  YS02001664           JUNCTION     0.35     0.58     8.50     0  02:43        0.56
  YS02001622           JUNCTION     1.27     1.54     8.45     0  02:22        1.50
  YS02001633           JUNCTION     1.69     1.98     8.44     0  02:26        1.93
  YS02001649           JUNCTION     1.74     2.05     8.44     0  02:43        2.05
  YS02001757           JUNCTION     1.87     2.17     8.43     0  03:09        2.16
  YS02001895           JUNCTION     0.43     1.14     7.89     0  02:56        1.13
  YS02001625           JUNCTION     1.55     1.78     8.38     0  02:22        1.78
  YS02163301           JUNCTION     1.63     1.91     8.42     0  02:25        1.87
  YS02163601           JUNCTION     1.75     2.03     8.43     0  02:26        1.99
  YS02164001           JUNCTION     1.68     1.95     8.41     0  02:26        1.92
  YS02001647           JUNCTION     1.53     1.83     8.44     0  02:26        1.80
  YSB1154              JUNCTION     0.26     0.41     9.47     0  02:08        0.41
  YSB6556              JUNCTION     0.16     0.30     9.47     0  02:07        0.30
  YSB1174              JUNCTION     0.21     0.36     9.47     0  02:08        0.36
  YSB1171              JUNCTION     0.41     0.56     9.47     0  02:08        0.56
  YS02006553           JUNCTION     0.87     1.58     7.87     0  02:57        1.57
  YS02006561           JUNCTION     0.26     0.80     7.46     0  02:57        0.80
  YS02006556           JUNCTION     0.84     1.53     7.84     0  02:58        1.53
  YS02006558           JUNCTION     0.88     1.57     7.84     0  02:57        1.57
  YS02001783           JUNCTION     0.51     1.80     7.94     0  02:09        1.23
  YS02001784           JUNCTION     0.54     1.71     7.78     0  02:09        1.21
  YS02001786           JUNCTION     0.50     2.14     8.17     0  02:09        1.09
  YS02001788           JUNCTION     0.45     1.72     7.70     0  02:09        1.00
  YS02001790           JUNCTION     0.60     1.96     7.60     0  02:07        1.20
  YS02001791           JUNCTION     0.60     1.91     7.38     0  02:07        1.24
  YS02001793           JUNCTION     0.85     2.68     7.52     0  02:04        1.79
  WS02004139           JUNCTION     0.59     0.72     5.63     0  06:49        0.72
  WSC                  OUTFALL      0.31     0.39     1.06     0  02:05        0.39
  3                    OUTFALL      0.10     0.21     6.21     0  02:20        0.21
  4                    OUTFALL      0.03     0.14     7.14     0  02:10        0.14
  5                    OUTFALL      0.00     0.00     5.00     0  00:00        0.00
  JK-storage           STORAGE      2.94     5.80     6.60     0  02:09        5.80
  CC-storage           STORAGE      1.09     1.40     8.40     0  03:10        1.40
  XR-storage           STORAGE      6.65     7.72     5.72     0  02:36        7.72
  
  
  *******************
  Node Inflow Summary
  *******************
  
  -------------------------------------------------------------------------------------------------
                                  Maximum  Maximum                  Lateral       Total        Flow
                                  Lateral    Total  Time of Max      Inflow      Inflow     Balance
                                   Inflow   Inflow   Occurrence      Volume      Volume       Error
  Node                 Type           LPS      LPS  days hr:min    10^6 ltr    10^6 ltr     Percent
  -------------------------------------------------------------------------------------------------
  WS02001211           JUNCTION      7.35   387.71     0  06:50       0.207        6.93       0.433
  WS02001212           JUNCTION      0.00   387.89     0  06:50           0         6.9       0.229
  WS02001213           JUNCTION      0.00   388.33     0  06:50           0        6.89       0.343
  WS02003069           JUNCTION      0.32   923.48     0  02:03     0.00902        15.8       0.190
  WS02003072           JUNCTION      0.00   922.97     0  02:03           0        15.8       0.234
  WS02003073           JUNCTION      1.82   924.73     0  02:04      0.0514        15.8       0.265
  WS02003060           JUNCTION     16.53   922.83     0  02:02       0.466        15.8       0.180
  WS02003066           JUNCTION      0.00   601.14     0  02:19           0        8.52       0.058
  WS02003059           JUNCTION      0.00   389.26     0  06:51           0        6.87       0.510
  WS02003067           JUNCTION      0.00   601.05     0  02:18           0        8.53       0.118
  WS02004401           JUNCTION      0.00   603.62     0  02:13           0        8.78       0.261
  WS02004402           JUNCTION      0.00   603.30     0  02:14           0        8.76       0.244
  WS02004403           JUNCTION      0.00   603.04     0  02:16           0        8.73       0.221
  WS02004404           JUNCTION      0.16   602.99     0  02:16     0.00457        8.72       0.165
  WS02004406           JUNCTION      0.00   603.08     0  02:17           0        8.68       0.402
  WS02004409           JUNCTION      0.00   602.65     0  02:17           0        8.64       0.213
  WS02004410           JUNCTION      0.00   602.00     0  02:17           0        8.62       0.239
  WS02004411           JUNCTION      0.00   601.57     0  02:17           0         8.6       0.243
  WS02004412           JUNCTION      0.00   601.23     0  02:18           0        8.58       0.260
  WS02004413           JUNCTION      0.00   601.16     0  02:18           0        8.56       0.380
  WS02004405           JUNCTION      0.04   603.03     0  02:16     0.00107        8.71       0.247
  WS02006109           JUNCTION      1.23   597.83     0  02:13      0.0347        8.85       0.214
  WS02006110           JUNCTION      0.00   597.85     0  02:13           0        8.83       0.243
  WS02006111           JUNCTION      0.00   624.64     0  02:13           0         8.8       0.054
  WS02006112           JUNCTION     10.18   615.43     0  02:13      0.0577        8.85       0.350
  WS02006113           JUNCTION      0.00   598.73     0  02:13           0        8.81       0.118
  WS02006115           JUNCTION      0.00   622.19     0  02:12           0        8.82       0.257
  WS02006116           JUNCTION      0.00   606.29     0  02:13           0         8.8       0.224
  WS02006230           JUNCTION     10.28   401.29     0  05:22        0.29         7.1       0.183
  WS02006231           JUNCTION      0.00   392.59     0  05:21           0        6.83       0.167
  WS02006232           JUNCTION      0.00   392.71     0  05:21           0        6.84       0.239
  WS02006234           JUNCTION      0.00   394.28     0  05:21           0        6.85       0.125
  WS02006235           JUNCTION      0.00   394.34     0  05:21           0         6.9       0.162
  WS02006238           JUNCTION      0.00   307.70     0  07:32           0        4.78       0.172
  WS02006240           JUNCTION      0.00   315.13     0  07:31           0        4.76       0.265
  WS02006242           JUNCTION      0.00   324.60     0  03:21           0        4.75       0.319
  WS02006243           JUNCTION      0.00   337.27     0  03:21           0        4.74      -0.043
  WS02006245           JUNCTION      0.00   343.86     0  03:20           0        4.75       0.253
  WS02006247           JUNCTION      0.00   350.99     0  03:20           0        4.76       0.154
  WS02006248           JUNCTION      0.00   357.05     0  03:20           0        4.76       0.056
  WS02006249           JUNCTION      0.00   443.14     0  02:40           0        5.36       0.234
  WS02006239           JUNCTION      0.00   309.75     0  07:31           0        4.77       0.253
  WS02006251           JUNCTION      0.08   444.65     0  02:10     0.00217        5.39       0.163
  WS02006252           JUNCTION      0.00   400.00     0  02:40           0        5.03       0.009
  WS02006253           JUNCTION      1.44    57.95     0  02:08     0.00747       0.358       1.122
  WS02006256           JUNCTION      0.00   600.00     0  05:10           0         6.2       0.049
  WS02004138           JUNCTION      0.00   380.00     0  06:40           0        6.75       0.067
  WS02004407           JUNCTION      0.00   602.78     0  02:17           0        8.65       0.094
  WS02006228           JUNCTION      0.00   596.67     0  02:13           0        8.83       0.165
  WS02006229           JUNCTION      0.00   598.68     0  02:12           0        8.84       0.146
  WS02006280           JUNCTION      0.00   274.19     0  02:09           0        1.75       0.004
  WS02006284           JUNCTION      0.10   274.19     0  02:09      0.0027        1.75       0.059
  WS02006287           JUNCTION      0.00   274.08     0  02:09           0        1.75       0.041
  WSF200               JUNCTION      0.00   601.19     0  02:19           0        8.51       0.060
  HS02004901           JUNCTION     12.34    12.34     0  01:36      0.0695      0.0697       2.591
  HS02004881           JUNCTION      5.34    56.65     0  02:08      0.0303       0.326       0.081
  HS02004876           JUNCTION     10.11    51.23     0  02:08      0.0584       0.296       0.183
  HS02004870           JUNCTION     10.08    41.18     0  02:08      0.0575       0.238       0.045
  HS02004862           JUNCTION      9.99    31.21     0  02:08      0.0634        0.18       0.095
  HS02004856           JUNCTION      7.58    21.25     0  02:08      0.0432       0.118       1.231
  HS02004852           JUNCTION      0.00    13.78     0  02:09           0      0.0753       0.072
  HS02004848           JUNCTION     22.44    22.44     0  02:09       0.139       0.139       0.033
  HS02004842           JUNCTION      0.00     8.71     0  02:17           0      0.0763      20.535
  HS02004837           JUNCTION     23.78    32.32     0  02:08       0.279       0.343       0.237
  HS02004830           JUNCTION      0.15    32.46     0  02:09     0.00423       0.333       0.372
  HS02004824           JUNCTION     27.40    59.85     0  02:10       0.181       0.513       0.105
  HS02004817           JUNCTION      0.60    60.44     0  02:10      0.0169       0.529       3.252
  HS02004807           JUNCTION     18.56    78.63     0  02:09       0.106       0.618       0.704
  HS02004802           JUNCTION      0.00    78.69     0  02:10           0       0.615       0.646
  HS02004799           JUNCTION     14.98   164.66     0  02:07      0.0856       0.976       0.270
  HS02004792           JUNCTION     62.86   149.73     0  02:07       0.364       0.891       0.045
  HS02004788           JUNCTION     22.43    86.95     0  02:07       0.166       0.528       0.073
  HS02004785           JUNCTION      0.15    64.59     0  02:07     0.00423       0.363       0.135
  HS02004777           JUNCTION      0.03    64.48     0  02:07    0.000846       0.364       1.448
  HS02004770           JUNCTION     52.29    64.50     0  02:06       0.297       0.365       0.854
  HS02004480           JUNCTION      0.00   195.78     0  02:07           0        1.15       0.099
  HS02004479           JUNCTION      0.00    31.20     0  02:09           0       0.188       0.391
  HS02004478           JUNCTION      0.00   274.07     0  02:08           0        1.75       0.020
  YS02001745           JUNCTION    214.32   373.85     0  02:26        2.14        2.16       0.496
  YS02001748           JUNCTION      0.04   546.52     0  02:25     0.00127        2.15       1.047
  YS02001751           JUNCTION      0.01   336.34     0  02:14     0.00031        2.11       1.115
  YS02001754           JUNCTION      0.26   280.44     0  02:26     0.00733         2.1       1.187
  YS02001762           JUNCTION      0.00   258.47     0  02:47           0           2       1.051
  YS02001765           JUNCTION      0.00   258.17     0  02:47           0        2.01       1.222
  YS02001767           JUNCTION      0.54   258.14     0  02:47      0.0151        2.03       1.795
  YS02001770           JUNCTION    259.81   335.24     0  03:15        2.41        2.49       1.281
  YS02001774           JUNCTION      0.00   336.01     0  03:15           0       0.533       4.938
  YS02001779           JUNCTION      0.01   336.24     0  03:14    0.000141       0.502       3.153
  YS02001882           JUNCTION      0.00    12.42     0  02:09           0      0.0151      16.190
  YS02001884           JUNCTION      0.00    30.19     0  02:11           0      0.0512      12.856
  YS02001759           JUNCTION    246.73   503.20     0  02:47        2.23        4.12       0.557
  YS02001887           JUNCTION    301.84   301.84     0  02:31        2.57         2.6       0.312
  YS02001890           JUNCTION      0.00   301.56     0  02:40           0        2.56       0.346
  YS02001898           JUNCTION      0.00   302.94     0  02:43           0        2.54       0.115
  YS02001901           JUNCTION      0.00   301.86     0  02:53           0        2.54       0.259
  YS02001904           JUNCTION      0.00   302.05     0  02:53           0        2.54       0.235
  YS02001907           JUNCTION      0.00   587.65     0  03:02           0        5.62       0.421
  YS02001910           JUNCTION      0.00   321.54     0  03:06           0         3.1       0.367
  YS02001915           JUNCTION    186.98   321.04     0  03:06         1.8         3.1       0.182
  YS02001918           JUNCTION      0.00   141.37     0  03:07           0         1.3       0.135
  YS02001619           JUNCTION    183.42   183.42     0  02:55        1.79        1.79       0.688
  YS02001629           JUNCTION      0.00   186.98     0  02:10           0        1.67       1.719
  YS02001641           JUNCTION      0.00   375.92     0  02:40           0        3.69       0.566
  YS02001644           JUNCTION    204.56  1018.38     0  03:12        2.06         7.4       0.353
  YS02001652           JUNCTION      0.00   275.50     0  02:44           0        1.86       1.246
  YS02001655           JUNCTION      0.15   375.71     0  02:07     0.00434        1.89       1.348
  YS02001920           JUNCTION      2.87   131.03     0  03:06      0.0809        1.31       0.214
  YS02001923           JUNCTION      0.04   109.54     0  03:02     0.00106        1.23       0.049
  YS02001926           JUNCTION      0.05   104.65     0  03:01     0.00147        1.23       0.252
  YS02001929           JUNCTION    100.40   100.40     0  03:01        1.23        1.23       0.039
  YS02001658           JUNCTION      0.00   545.93     0  02:24           0        1.91       1.218
  YS02001661           JUNCTION      0.00   628.45     0  02:43           0        2.53       0.002
  YS02001664           JUNCTION    219.77   385.53     0  02:43        1.91        2.53       0.248
  YS02001622           JUNCTION      0.00   183.67     0  02:54           0        1.78       1.815
  YS02001633           JUNCTION    208.70   375.45     0  02:40        2.13        3.75       0.857
  YS02001649           JUNCTION      0.00   814.99     0  02:25           0         5.3       0.700
  YS02001757           JUNCTION      0.00  1465.58     0  02:39           0        9.69       0.961
  YS02001895           JUNCTION      0.00   302.53     0  02:40           0        2.55       0.190
  YS02001625           JUNCTION      0.00   186.63     0  02:10           0        1.74       2.260
  YS02163301           JUNCTION      0.00   187.27     0  02:22           0        1.65       1.456
  YS02163601           JUNCTION      0.11   375.42     0  02:40      0.0031        3.71       0.814
  YS02164001           JUNCTION      0.00   375.40     0  02:40           0        3.69       0.539
  YS02001647           JUNCTION      0.00   569.96     0  02:40           0        4.23       0.671
  YSB1154              JUNCTION     18.00    18.00     0  02:07       0.104       0.105       1.400
  YSB6556              JUNCTION      0.00    17.99     0  02:06           0       0.105       1.199
  YSB1174              JUNCTION     13.79    13.79     0  01:35      0.0753      0.0758       1.722
  YSB1171              JUNCTION      0.00    31.24     0  02:07           0       0.187       3.509
  YS02006553           JUNCTION      0.00   587.44     0  03:02           0        5.62       0.267
  YS02006561           JUNCTION      0.00   842.74     0  02:56           0        7.92       0.006
  YS02006556           JUNCTION      0.00   587.57     0  03:02           0        5.62       0.196
  YS02006558           JUNCTION    265.84   843.08     0  02:56        2.36        7.95       0.066
  YS02001783           JUNCTION      0.00   841.34     0  02:57           0        7.92       0.028
  YS02001784           JUNCTION      1.06   842.28     0  02:57      0.0299        7.95       0.043
  YS02001786           JUNCTION      0.06   842.36     0  02:57     0.00159        7.95       0.040
  YS02001788           JUNCTION      0.07   842.51     0  02:57       0.002        7.94       0.024
  YS02001790           JUNCTION      0.15   842.49     0  02:57     0.00437        7.95       0.025
  YS02001791           JUNCTION      0.00   842.53     0  02:57           0        7.94       0.013
  YS02001793           JUNCTION      0.00   842.71     0  02:57           0        7.95      -0.016
  WS02004139           JUNCTION      0.32   380.32     0  06:42     0.00905        6.76       0.499
  WSC                  OUTFALL       0.00   924.73     0  02:05           0        15.7       0.000
  3                    OUTFALL       0.00   520.68     0  02:20           0        4.03       0.000
  4                    OUTFALL       0.00   182.59     0  02:10           0       0.582       0.000
  5                    OUTFALL       0.00     0.00     0  00:00           0           0       0.000 ltr
  JK-storage           STORAGE       0.00  1049.53     0  02:04           0         8.1      -9.519
  CC-storage           STORAGE       0.00  1465.81     0  02:39           0        8.66       0.686
  XR-storage           STORAGE     549.18   549.18     0  02:55        9.26        9.86      -0.002
  
  
  **********************
  Node Surcharge Summary
  **********************
  
  Surcharging occurs when water rises above the top of the highest conduit.
  ---------------------------------------------------------------------
                                               Max. Height   Min. Depth
                                   Hours       Above Crown    Below Rim
  Node                 Type      Surcharged         Meters       Meters
  ---------------------------------------------------------------------
  WS02004404           JUNCTION        0.16          0.009        2.771
  WS02006109           JUNCTION        2.67          0.223        1.597
  WS02006110           JUNCTION        1.02          0.059        1.791
  WS02006112           JUNCTION        1.23          0.203        1.477
  WS02006230           JUNCTION        0.13          0.029        1.541
  WS02006231           JUNCTION        0.32          0.077        1.453
  WS02006232           JUNCTION        2.82          0.214        1.266
  WS02006234           JUNCTION        0.81          0.132        1.108
  WS02006235           JUNCTION        1.72          0.156        1.134
  WS02006238           JUNCTION        2.18          0.169        1.261
  WS02006240           JUNCTION        0.75          0.113        1.277
  WS02006242           JUNCTION        1.65          0.133        0.687
  WS02006243           JUNCTION        0.17          0.035        0.735
  WS02006247           JUNCTION        0.01          0.034        0.726
  WS02006239           JUNCTION        1.16          0.125        1.165
  WS02006252           JUNCTION        2.45          0.193        0.907
  WS02006228           JUNCTION        2.51          0.265        1.935
  YS02001748           JUNCTION        5.25          1.190        0.000
  YS02001751           JUNCTION        5.51          1.200        0.000
  YS02001754           JUNCTION        5.75          1.059        0.091
  YS02001762           JUNCTION        5.96          1.032        0.118
  YS02001765           JUNCTION        5.94          0.978        0.122
  YS02001767           JUNCTION        5.92          0.935        0.095
  YS02001770           JUNCTION        5.90          0.882        0.038
  YS02001774           JUNCTION        5.95          0.974        0.076
  YS02001779           JUNCTION        5.73          0.680        0.000
  YS02001882           JUNCTION        0.48          0.186        0.644
  YS02001884           JUNCTION        0.56          0.223        0.647
  YS02001759           JUNCTION        5.98          1.066        0.144
  YS02001887           JUNCTION        0.71          0.318        0.632
  YS02001890           JUNCTION        0.76          0.350        0.410
  YS02001898           JUNCTION        0.37          0.119        0.621
  YS02001901           JUNCTION        0.65          0.275        0.595
  YS02001904           JUNCTION        0.61          0.244        0.606
  YS02001907           JUNCTION        1.43          0.576        0.374
  YS02001910           JUNCTION        0.83          0.373        0.727
  YS02001915           JUNCTION        0.45          0.159        0.841
  YS02001619           JUNCTION        5.54          0.541        0.069
  YS02001629           JUNCTION        5.55          0.470        0.000
  YS02001641           JUNCTION        5.94          0.954        0.146
  YS02001644           JUNCTION        5.95          0.920        0.000
  YS02001652           JUNCTION        5.76          1.130        0.000
  YS02001655           JUNCTION        5.58          1.200        0.000
  YS02001658           JUNCTION        5.30          1.300        0.000
  YS02001661           JUNCTION        0.19          1.390        0.000
  YS02001622           JUNCTION        5.58          0.543        0.077
  YS02001633           JUNCTION        5.93          0.961        0.099
  YS02001649           JUNCTION        5.96          1.050        0.000
  YS02001757           JUNCTION        6.04          1.174        0.036
  YS02001895           JUNCTION        0.41          0.143        0.607
  YS02001625           JUNCTION        5.79          0.780        0.000
  YS02163301           JUNCTION        5.91          0.908        0.122
  YS02163601           JUNCTION        5.96          1.032        0.048
  YS02164001           JUNCTION        5.94          0.950        0.150
  YS02001647           JUNCTION        5.76          0.826        0.074
  YS02006553           JUNCTION        1.49          0.582        0.608
  YS02006556           JUNCTION        1.13          0.493        0.857
  YS02006558           JUNCTION        1.07          0.472        0.928
  YS02001783           JUNCTION        1.34          1.001        0.599
  YS02001784           JUNCTION        1.42          0.909        0.581
  YS02001786           JUNCTION        1.35          1.344        0.086
  YS02001788           JUNCTION        1.33          0.919        0.561
  YS02001790           JUNCTION        2.99          1.157        0.000
  YS02001791           JUNCTION        3.02          1.107        0.813
  YS02001793           JUNCTION        3.10          1.684        0.916
  
  
  *********************
  Node Flooding Summary
  *********************
  
  Flooding refers to all water that overflows a node, whether it ponds or not.
  --------------------------------------------------------------------------
                                                             Total   Maximum
                                 Maximum   Time of Max       Flood    Ponded
                        Hours       Rate    Occurrence      Volume     Depth
  Node                 Flooded       LPS   days hr:min    10^6 ltr    Meters
  --------------------------------------------------------------------------
  YS02001748              0.01    128.45      0  02:27       0.000     0.000
  YS02001751              0.01    129.03      0  02:14       0.000     0.000
  YS02001779              2.06    336.04      0  03:14       0.482     0.000
  YS02001629              0.01     29.58      0  02:24       0.000     0.000
  YS02001644              3.68   1018.15      0  03:12       4.801     0.000
  YS02001652              0.01      6.16      0  02:52       0.000     0.000
  YS02001655              0.01    172.16      0  02:12       0.000     0.000
  YS02001658              0.01    167.27      0  02:24       0.000     0.000
  YS02001661              0.01    130.22      0  02:51       0.000     0.000
  YS02001649              0.06     38.27      0  02:49       0.003     0.000
  YS02001625              0.57     36.07      0  02:56       0.043     0.000
  YS02001790              0.01    105.87      0  02:07       0.000     0.000
  JK-storage              2.58    542.55      0  02:57       2.745     0.000
  XR-storage              3.44    451.19      0  03:00       2.279     0.000
  
  
  **********************
  Storage Volume Summary
  **********************
  
  --------------------------------------------------------------------------------------------------
                         Average     Avg  Evap Exfil       Maximum     Max    Time of Max    Maximum
                          Volume    Pcnt  Pcnt  Pcnt        Volume    Pcnt     Occurrence    Outflow
  Storage Unit           1000 m3    Full  Loss  Loss       1000 m3    Full    days hr:min        LPS
  --------------------------------------------------------------------------------------------------
  JK-storage               0.148      51     0     0         0.291     100       0  02:09     600.00
  CC-storage               3.025      19     0     0         3.894      25       0  03:10     400.00
  XR-storage               0.798      86     0     0         0.926     100       0  02:36     380.00
  
  
  ***********************
  Outfall Loading Summary
  ***********************
  
  -----------------------------------------------------------
                         Flow       Avg       Max       Total
                         Freq      Flow      Flow      Volume
  Outfall Node           Pcnt       LPS       LPS    10^6 ltr
  -----------------------------------------------------------
  WSC                  100.00    610.97    924.73      15.725
  3                     91.97    203.67    520.68       4.033
  4                     43.99     61.92    182.59       0.582
  5                      0.00      0.00      0.00       0.000
  -----------------------------------------------------------
  System                58.99    876.57   1334.38      20.340
  
  
  ********************
  Link Flow Summary
  ********************
  
  -----------------------------------------------------------------------------
                                 Maximum  Time of Max   Maximum    Max/    Max/
                                  |Flow|   Occurrence   |Veloc|    Full    Full
  Link                 Type          LPS  days hr:min     m/sec    Flow   Depth
  -----------------------------------------------------------------------------
  WS02003066WSF200     CONDUIT    601.19     0  02:19      2.86    0.10    0.24
  WS02006287WS02006284 CONDUIT    274.09     0  02:09      1.78    0.13    0.25
  WS02006284WS02006280 CONDUIT    274.19     0  02:09      2.02    0.11    0.23
  WS02006280WS02006229 CONDUIT    274.19     0  02:09      3.26    0.06    0.16
  WS02006229WS02006228 CONDUIT    596.67     0  02:13      1.19    1.98    1.00
  WS02006256WS02006235 CONDUIT    153.17     0  01:35      2.20    1.62    1.00
  WS02006253WS02006251 CONDUIT     64.46     0  02:11      0.52    0.19    0.97
  WS02006252WS02006251 CONDUIT    400.34     0  03:21      3.19    1.47    1.00
  WS02006251WS02006249 CONDUIT    443.14     0  02:40      1.19    1.28    0.94
  WS02006249WS02006248 CONDUIT    357.05     0  03:20      1.16    1.96    0.89
  WS02006248WS02006247 CONDUIT    350.99     0  03:20      1.12    0.76    0.95
  WS02006247WS02006245 CONDUIT    343.86     0  03:20      1.08    2.73    0.99
  WS02006245WS02006243 CONDUIT    337.27     0  03:21      1.09    1.00    1.00
  WS02006243WS02006242 CONDUIT    324.60     0  03:21      0.95    0.69    1.00
  WS02006242WS02006240 CONDUIT    315.13     0  07:31      0.86    1.25    1.00
  WS02006240WS02006239 CONDUIT    309.75     0  07:31      0.84    0.97    1.00
  WS02006239WS02006238 CONDUIT    307.70     0  07:32      0.80    0.98    1.00
  WS02006238WS02006235 CONDUIT    309.21     0  07:32      0.80    0.69    1.00
  WS02006235WS02006234 CONDUIT    394.28     0  05:21      1.04    4.16    1.00
  WS02006234WS02006232 CONDUIT    392.71     0  05:21      1.02    0.79    1.00
  WS02006232WS02006231 CONDUIT    392.59     0  05:21      1.07    0.82    1.00
  WS02006231WS02006230 CONDUIT    391.01     0  05:22      1.34    5.93    1.00
  WS02006230WS02006229 CONDUIT    400.83     0  05:23      1.04    8.92    1.00
  WS02006228WS02006109 CONDUIT    596.60     0  02:13      1.19    2.61    1.00
  WS02006116WS02004401 CONDUIT    603.62     0  02:13      0.81    0.83    0.90
  WS02006115WS02006116 CONDUIT    606.29     0  02:13      0.94    0.78    0.82
  WS02006113WS02006111 CONDUIT    624.64     0  02:13      2.56    0.75    0.49
  WS02006112WS02006115 CONDUIT    622.19     0  02:12      0.84    0.37    0.90
  WS02006111WS02006112 CONDUIT    606.08     0  02:13      1.65    0.29    0.68
  WS02006110WS02006113 CONDUIT    598.73     0  02:13      1.39    0.54    0.80
  WS02006109WS02006110 CONDUIT    597.85     0  02:13      1.19    1.15    1.00
  WS02004411WS02004412 CONDUIT    601.23     0  02:18      0.98    0.85    0.73
  WS02004401WS02004402 CONDUIT    603.30     0  02:14      0.83    0.72    0.92
  WS02004413WS02003067 CONDUIT    601.05     0  02:18      1.18    0.26    0.62
  WS02004412WS02004413 CONDUIT    601.16     0  02:18      0.88    0.40    0.81
  WS02004410WS02004411 CONDUIT    601.57     0  02:17      0.99    0.82    0.73
  WS02004409WS02004410 CONDUIT    602.00     0  02:17      1.00    0.78    0.72
  WS02004407WS02004409 CONDUIT    602.65     0  02:17      1.50    0.21    0.51
  WS02004406WS02004407 CONDUIT    602.78     0  02:17      1.11    0.27    0.65
  WS02004405WS02004406 CONDUIT    603.08     0  02:17      0.77    1.19    0.99
  WS02004404WS02004405 CONDUIT    602.99     0  02:16      0.96    5.91    1.00
  WS02004403WS02004404 CONDUIT    602.83     0  02:16      0.85    0.44    0.97
  WS02004402WS02004403 CONDUIT    603.04     0  02:16      0.87    0.87    0.93
  WS02004139WS02001211 CONDUIT    380.37     0  06:50      0.81    0.48    0.58
  WS02004138WS02004139 CONDUIT    380.00     0  06:42      3.34    0.08    0.43
  WS02003067WS02003066 CONDUIT    601.14     0  02:19      1.29    0.19    0.43
  WS02001213WS02003059 CONDUIT    389.26     0  06:51      0.78    0.64    0.76
  WS02001212WS02001213 CONDUIT    388.33     0  06:50      1.31    0.60    0.46
  WS02001211WS02001212 CONDUIT    387.89     0  06:50      0.77    0.30    0.63
  WS02003072WS02003073 CONDUIT    922.91     0  02:04      1.72    1.99    0.48
  WS02003069WS02003072 CONDUIT    922.97     0  02:03      1.61    0.44    0.50
  WS02003060WS02003069 CONDUIT    923.16     0  02:03      1.86    0.36    0.45
  WS02003059WS02003060 CONDUIT    390.75     0  06:51      0.93    0.26    0.65
  HS02004901HS02004770 CONDUIT     12.22     0  02:07      0.05    0.05    0.35
  HS02004876HS02004881 CONDUIT     51.36     0  02:08      0.76    0.55    0.10
  HS02004870HS02004876 CONDUIT     41.17     0  02:09      0.52    0.03    0.11
  HS02004842HS02004848 CONDUIT      8.71     0  02:17      0.04    0.01    0.29
  HS02004837HS02004842 CONDUIT      8.85     0  02:14      0.42    0.01    0.30
  HS02004830HS02004837 CONDUIT     32.31     0  02:09      0.50    0.03    0.09
  HS02004824HS02004830 CONDUIT     32.45     0  02:09      0.53    0.04    0.09
  HS02004817HS02004824 CONDUIT     59.84     0  02:10      0.20    0.03    0.43
  HS02004770HS02004777 CONDUIT     64.45     0  02:07      0.26    0.12    0.36
  HS02004799HS02004480 CONDUIT    164.63     0  02:07      0.67    0.21    0.35
  HS02004792HS02004799 CONDUIT    149.69     0  02:07      0.76    0.09    0.28
  HS02004788HS02004792 CONDUIT     86.94     0  02:08      0.90    0.06    0.14
  HS02004785HS02004788 CONDUIT     64.57     0  02:08      0.57    0.49    0.16
  HS02004777HS02004785 CONDUIT     64.44     0  02:07      0.31    0.08    0.29
  HS02004480HS02004478 CONDUIT    195.75     0  02:08      1.06    0.82    0.26
  HS02004479HS02004480 CONDUIT     31.31     0  02:10      0.28    0.03    0.34
  HS02004862HS02004870 CONDUIT     31.19     0  02:09      0.56    0.03    0.08
  HS02004848HS02004852 CONDUIT     13.78     0  02:09      0.38    0.02    0.05
  HS02004856HS02004862 CONDUIT     21.24     0  02:09      0.41    0.02    0.07
  HS02004852HS02004856 CONDUIT     13.76     0  02:09      0.18    0.02    0.11
  HS02004802HS02004478 CONDUIT     78.88     0  02:11      0.38    0.07    0.29
  HS02004478WS02006287 CONDUIT    274.08     0  02:09      1.48    0.08    0.21
  HS02004817HS02004807 CONDUIT     60.62     0  02:11      0.15    0.04    0.56
  HS02004807HS02004802 CONDUIT     78.69     0  02:10      0.32    0.15    0.35
  YS02001759YS02001757 CONDUIT    503.34     0  02:47      0.64    0.36    1.00
  YS02001762YS02001759 CONDUIT    259.45     0  02:32      0.33    0.30    1.00
  YS02001765YS02001762 CONDUIT    258.47     0  02:47      0.33    0.24    1.00
  YS02001770YS02001767 CONDUIT    257.61     0  02:47      0.38    1.02    1.00
  YS02001774YS02001770 CONDUIT    336.01     0  03:15      0.43    0.21    1.00
  YS02001779YS02001774 CONDUIT    336.23     0  03:14      0.43    0.17    1.00
  YS02001649YS02001757 CONDUIT    815.34     0  02:25      1.04    0.49    1.00
  YS02001767YS02001765 CONDUIT    258.17     0  02:47      0.35    0.32    1.00
  YS02006561YS02001783 CONDUIT    841.34     0  02:57      2.10    0.44    1.00
  YS02001783YS02001784 CONDUIT    841.22     0  02:57      1.67    1.16    1.00
  YS02001784YS02001785 CONDUIT    842.31     0  02:57      1.68    1.96    1.00
  YS02001788YS02001790 CONDUIT    842.34     0  02:57      2.19    0.62    1.00
  YS02001790YS02001791 CONDUIT    842.53     0  02:57      2.55    0.92    1.00
  YS02001791YS02001793 CONDUIT    842.71     0  02:57      5.10    0.36    1.00
  YS02001910YS02001907 CONDUIT    321.62     0  03:06      0.49    0.18    1.00
  YS02001786YS02001788 CONDUIT    842.44     0  02:57      2.11    1.62    1.00
  YS02001915YS02001910 CONDUIT    321.54     0  03:06      0.56    0.16    1.00
  YS02001918YS02001915 CONDUIT    150.57     0  03:06      0.44    0.08    0.91
  YS02001923YS02001920 CONDUIT    128.16     0  03:06      0.66    0.06    0.74
  YS02001926YS02001923 CONDUIT    109.51     0  03:02      0.76    0.16    0.42
  YS02001929YS02001926 CONDUIT    104.59     0  03:01      0.81    0.05    0.30
  YS02001920YS02001918 CONDUIT    141.37     0  03:07      0.65    0.14    0.84
  YS02001629YS02163301 CONDUIT    187.27     0  02:22      0.24    0.23    1.00
  YS02001619YS02001622 CONDUIT    183.67     0  02:54      0.67    0.27    1.00
  YS02001622YS02001625 CONDUIT    186.63     0  02:10      0.32    0.10    1.00
  YS02001625YS02001629 CONDUIT    186.98     0  02:10      0.27    0.09    1.00
  YS02163301YS02001633 CONDUIT    187.34     0  02:22      0.24    0.18    1.00
  YS02163601YS02164001 CONDUIT    375.40     0  02:40      0.48    0.33    1.00
  YS02164001YS02001641 CONDUIT    375.92     0  02:40      0.48    0.51    1.00
  YS02001641YS02001644 CONDUIT    375.75     0  02:40      0.48    1.21    1.00
  YS02001647YS02001649 CONDUIT    570.21     0  02:40      0.73    0.30    1.00
  YS02006553YS02006556 CONDUIT    587.57     0  03:02      0.75    0.50    1.00
  YS02006556YS02006558 CONDUIT    587.84     0  03:02      0.75    0.46    1.00
  YSB6556YSB1171       CONDUIT     18.03     0  02:09      0.07    0.02    0.61
  YS02001907YS02006553 CONDUIT    587.44     0  03:02      0.65    0.69    1.00
  YS02006558YS02006561 CONDUIT    842.74     0  02:56      3.12    1.86    1.00
  YS02001633YS02163601 CONDUIT    375.31     0  02:40      0.48    0.39    1.00
  YS02001644YS02001647 CONDUIT    569.96     0  02:40      0.73    0.33    1.00
  YS02001745YS02001748 CONDUIT    546.47     0  02:25      1.53    0.21    0.94
  YS02001748YS02001751 CONDUIT    336.33     0  02:14      1.14    0.17    1.00
  YS02001751YS02001754 CONDUIT    280.18     0  02:26      0.97    0.14    1.00
  YS02001754YS02001757 CONDUIT    280.53     0  02:26      0.36    0.11    1.00
  YS02001882YS02001884 CONDUIT     15.64     0  02:12      0.12    0.02    1.00
  YS02001884YS02001887 CONDUIT     30.19     0  02:11      0.09    0.04    1.00
  YS02001890YS02001895 CONDUIT    302.53     0  02:40      0.46    0.14    1.00
  YS02001895YS02001898 CONDUIT    302.94     0  02:43      0.57    0.53    1.00
  YS02001898YS02001901 CONDUIT    301.86     0  02:53      0.50    0.19    1.00
  YS02001901YS02001904 CONDUIT    302.05     0  02:53      0.45    0.47    1.00
  YS02001904YS02001907 CONDUIT    302.08     0  02:53      0.38    0.11    1.00
  YS02001887YS02001890 CONDUIT    301.56     0  02:40      0.40    0.52    1.00
  YS02001652YS02001649 CONDUIT    277.90     0  02:09      0.58    0.14    1.00
  YS02001655YS02001652 CONDUIT    275.50     0  02:44      1.05    0.13    1.00
  YS02001658YS02001655 CONDUIT    375.56     0  02:07      1.31    0.16    1.00
  YS02001661YS02001658 CONDUIT    545.93     0  02:24      1.61    0.21    1.00
  YS02001664YS02001661 CONDUIT    628.45     0  02:43      1.54    0.20    0.72
  YSB1154YSB6556       CONDUIT     17.99     0  02:06      0.16    0.03    0.50
  YSB1174YSB1171       CONDUIT     13.75     0  01:36      0.06    0.02    0.62
  YSB1171HS02004479    CONDUIT     31.20     0  02:09      0.54    0.02    0.48
  HS02004881HS02006253 CONDUIT     56.65     0  02:08      1.91    0.01    0.28
  YS02001793JiankangQianchi CONDUIT   1049.53     0  02:04     12.05    0.08    1.00
  YS02001757CaochengTiaoxuchi CONDUIT   1465.81     0  02:39      2.35    0.64    1.00
  WSF200WS02003060     CONDUIT    601.69     0  02:19      1.93    0.13    0.34
  1                    CONDUIT    924.73     0  02:05      3.26    0.32    0.39
  2                    CONDUIT    182.59     0  02:10      5.71    0.44    0.46
  3                    CONDUIT    520.68     0  02:20      9.86    0.83    0.70
  4                    CONDUIT      0.00     0  00:00      0.00    0.00    0.00
  CC-Pump-1            PUMP       200.00     0  02:10              1.00
  CC-Pump-2            PUMP       200.00     0  02:40              1.00
  JK-Pump-1            PUMP       300.00     0  02:10              1.00
  JK-Pump-2            PUMP       300.00     0  03:10              1.00
  XR-Pump-1            PUMP        95.00     0  00:00              1.00
  XR-Pump-2            PUMP        95.00     0  00:00              1.00
  XR-Pump-3            PUMP        95.00     0  00:00              1.00
  XR-Pump-4            PUMP        95.00     0  00:20              1.00
  
  
  ***************************
  Flow Classification Summary
  ***************************
  
  -------------------------------------------------------------------------------------
                      Adjusted    ---------- Fraction of Time in Flow Class ---------- 
                       /Actual         Up    Down  Sub   Sup   Up    Down  Norm  Inlet 
  Conduit               Length    Dry  Dry   Dry   Crit  Crit  Crit  Crit  Ltd   Ctrl  
  -------------------------------------------------------------------------------------
  WS02003066WSF200        1.00   0.01  0.03  0.00  0.00  0.96  0.00  0.00  0.68  0.00
  WS02006287WS02006284    1.00   0.03  0.01  0.00  0.58  0.37  0.00  0.00  0.68  0.00
  WS02006284WS02006280    1.00   0.04  0.00  0.00  0.00  0.00  0.00  0.96  0.00  0.00
  WS02006280WS02006229    1.00   0.04  0.00  0.00  0.00  0.00  0.00  0.96  0.00  0.00
  WS02006229WS02006228    1.00   0.00  0.00  0.00  1.00  0.00  0.00  0.00  0.00  0.00
  WS02006256WS02006235    1.00   0.00  0.00  0.00  1.00  0.00  0.00  0.00  0.00  0.00
  WS02006253WS02006251    1.00   0.02  0.01  0.00  0.96  0.00  0.00  0.00  0.00  0.00
  WS02006252WS02006251    1.00   0.06  0.00  0.00  0.00  0.00  0.94  0.00  0.00  0.00
  WS02006251WS02006249    1.00   0.00  0.00  0.00  1.00  0.00  0.00  0.00  0.21  0.00
  WS02006249WS02006248    1.00   0.00  0.00  0.00  0.91  0.00  0.09  0.00  0.00  0.00
  WS02006248WS02006247    1.00   0.00  0.00  0.00  0.98  0.00  0.00  0.02  0.11  0.00
  WS02006247WS02006245    1.00   0.00  0.00  0.00  0.98  0.00  0.00  0.02  0.00  0.00
  WS02006245WS02006243    1.00   0.01  0.00  0.00  0.96  0.00  0.00  0.03  0.01  0.00
  WS02006243WS02006242    1.00   0.01  0.00  0.00  0.99  0.00  0.00  0.00  0.15  0.00
  WS02006242WS02006240    1.00   0.00  0.00  0.00  0.99  0.00  0.00  0.00  0.00  0.00
  WS02006240WS02006239    1.00   0.00  0.00  0.00  0.98  0.00  0.00  0.02  0.02  0.00
  WS02006239WS02006238    1.00   0.00  0.00  0.00  1.00  0.00  0.00  0.00  0.00  0.00
  WS02006238WS02006235    1.00   0.00  0.00  0.00  1.00  0.00  0.00  0.00  0.00  0.00
  WS02006235WS02006234    1.00   0.00  0.00  0.00  0.98  0.00  0.02  0.00  0.00  0.00
  WS02006234WS02006232    1.00   0.00  0.00  0.00  1.00  0.00  0.00  0.00  0.00  0.00
  WS02006232WS02006231    1.00   0.00  0.00  0.00  0.99  0.00  0.00  0.00  0.00  0.00
  WS02006231WS02006230    1.00   0.00  0.00  0.00  0.72  0.00  0.28  0.00  0.00  0.00
  WS02006230WS02006229    1.00   0.00  0.00  0.00  0.99  0.00  0.00  0.01  0.00  0.00
  WS02006228WS02006109    1.00   0.00  0.00  0.00  1.00  0.00  0.00  0.00  0.00  0.00
  WS02006116WS02004401    1.00   0.02  0.00  0.00  0.98  0.00  0.00  0.00  0.00  0.00
  WS02006115WS02006116    1.00   0.02  0.00  0.00  0.97  0.00  0.00  0.00  0.00  0.00
  WS02006113WS02006111    1.00   0.01  0.00  0.00  0.00  0.99  0.00  0.00  0.12  0.00
  WS02006112WS02006115    1.00   0.01  0.01  0.00  0.98  0.00  0.00  0.00  0.00  0.00
  WS02006111WS02006112    1.00   0.01  0.00  0.00  0.98  0.00  0.00  0.00  0.95  0.00
  WS02006110WS02006113    1.00   0.00  0.01  0.00  0.99  0.00  0.00  0.00  0.00  0.00
  WS02006109WS02006110    1.00   0.00  0.00  0.00  1.00  0.00  0.00  0.00  0.00  0.00
  WS02004411WS02004412    1.00   0.03  0.00  0.00  0.97  0.00  0.00  0.00  0.00  0.00
  WS02004401WS02004402    1.00   0.02  0.00  0.00  0.98  0.00  0.00  0.00  0.00  0.00
  WS02004413WS02003067    1.00   0.03  0.01  0.00  0.00  0.00  0.96  0.00  0.00  0.00
  WS02004412WS02004413    1.00   0.03  0.00  0.00  0.97  0.00  0.00  0.00  0.01  0.00
  WS02004410WS02004411    1.00   0.03  0.00  0.00  0.97  0.00  0.00  0.00  0.00  0.00
  WS02004409WS02004410    1.00   0.03  0.00  0.00  0.97  0.00  0.00  0.00  0.02  0.00
  WS02004407WS02004409    1.00   0.03  0.00  0.00  0.97  0.00  0.00  0.00  0.92  0.00
  WS02004406WS02004407    1.00   0.00  0.03  0.00  0.97  0.00  0.00  0.00  0.00  0.00
  WS02004405WS02004406    1.00   0.00  0.00  0.00  1.00  0.00  0.00  0.00  0.03  0.00
  WS02004404WS02004405    1.00   0.00  0.00  0.00  1.00  0.00  0.00  0.00  0.00  0.00
  WS02004403WS02004404    1.00   0.00  0.02  0.00  0.98  0.00  0.00  0.00  0.00  0.00
  WS02004402WS02004403    1.00   0.02  0.00  0.00  0.98  0.00  0.00  0.00  0.00  0.00
  WS02004139WS02001211    1.00   0.00  0.00  0.00  1.00  0.00  0.00  0.00  0.00  0.00
  WS02004138WS02004139    1.00   0.00  0.00  0.00  1.00  0.00  0.00  0.00  1.00  0.00
  WS02003067WS02003066    1.00   0.04  0.00  0.00  0.96  0.00  0.00  0.00  0.00  0.00
  WS02001213WS02003059    1.00   0.00  0.00  0.00  1.00  0.00  0.00  0.00  0.00  0.00
  WS02001212WS02001213    1.00   0.00  0.00  0.00  0.86  0.00  0.14  0.00  0.00  0.00
  WS02001211WS02001212    1.00   0.00  0.00  0.00  1.00  0.00  0.00  0.00  0.00  0.00
  WS02003072WS02003073    1.00   0.00  0.00  0.00  0.00  0.00  0.00  1.00  0.00  0.00
  WS02003069WS02003072    1.00   0.00  0.00  0.00  1.00  0.00  0.00  0.00  0.19  0.00
  WS02003060WS02003069    1.00   0.00  0.00  0.00  0.99  0.01  0.00  0.00  0.08  0.00
  WS02003059WS02003060    1.00   0.00  0.00  0.00  1.00  0.00  0.00  0.00  0.01  0.00
  HS02004901HS02004770    1.00   0.04  0.00  0.00  0.96  0.00  0.00  0.00  0.00  0.00
  HS02004876HS02004881    1.00   0.00  0.00  0.00  1.00  0.00  0.00  0.00  0.00  0.00
  HS02004870HS02004876    1.00   0.00  0.00  0.00  1.00  0.00  0.00  0.00  0.95  0.00
  HS02004842HS02004848    1.00   0.00  0.04  0.00  0.96  0.00  0.00  0.00  0.58  0.00
  HS02004837HS02004842    1.00   0.00  0.00  0.00  1.00  0.00  0.00  0.00  0.11  0.00
  HS02004830HS02004837    1.00   0.00  0.00  0.00  1.00  0.00  0.00  0.00  0.99  0.00
  HS02004824HS02004830    1.00   0.00  0.00  0.00  1.00  0.00  0.00  0.00  0.00  0.00
  HS02004817HS02004824    1.00   0.00  0.00  0.00  1.00  0.00  0.00  0.00  1.00  0.00
  HS02004770HS02004777    1.00   0.00  0.04  0.00  0.96  0.00  0.00  0.00  0.03  0.00
  HS02004799HS02004480    1.00   0.00  0.01  0.00  0.96  0.00  0.03  0.00  0.00  0.00
  HS02004792HS02004799    1.00   0.00  0.00  0.00  1.00  0.00  0.00  0.00  0.98  0.00
  HS02004788HS02004792    1.00   0.00  0.00  0.00  1.00  0.00  0.00  0.00  0.98  0.00
  HS02004785HS02004788    1.00   0.00  0.00  0.00  1.00  0.00  0.00  0.00  0.00  0.00
  HS02004777HS02004785    1.00   0.00  0.00  0.00  1.00  0.00  0.00  0.00  0.12  0.00
  HS02004480HS02004478    1.00   0.04  0.00  0.00  0.65  0.00  0.00  0.32  0.00  0.00
  HS02004479HS02004480    1.00   0.01  0.00  0.00  0.99  0.00  0.00  0.00  0.12  0.00
  HS02004862HS02004870    1.00   0.00  0.00  0.00  1.00  0.00  0.00  0.00  0.04  0.00
  HS02004848HS02004852    1.00   0.04  0.00  0.00  0.96  0.00  0.00  0.00  0.76  0.00
  HS02004856HS02004862    1.00   0.00  0.04  0.00  0.96  0.00  0.00  0.00  0.83  0.00
  HS02004852HS02004856    1.00   0.04  0.00  0.00  0.96  0.00  0.00  0.00  0.86  0.00
  HS02004802HS02004478    1.00   0.04  0.00  0.00  0.96  0.00  0.00  0.00  0.03  0.00
  HS02004478WS02006287    1.00   0.04  0.00  0.00  0.71  0.24  0.00  0.00  0.65  0.00
  HS02004817HS02004807    1.00   0.00  0.04  0.00  0.96  0.00  0.00  0.00  0.01  0.00
  HS02004807HS02004802    1.00   0.04  0.00  0.00  0.96  0.00  0.00  0.00  0.00  0.00
  YS02001759YS02001757    1.00   0.00  0.00  0.00  1.00  0.00  0.00  0.00  0.16  0.00
  YS02001762YS02001759    1.00   0.00  0.00  0.00  1.00  0.00  0.00  0.00  0.03  0.00
  YS02001765YS02001762    1.00   0.00  0.00  0.00  1.00  0.00  0.00  0.00  0.14  0.00
  YS02001770YS02001767    1.00   0.00  0.00  0.00  1.00  0.00  0.00  0.00  0.00  0.00
  YS02001774YS02001770    1.00   0.00  0.04  0.00  0.96  0.00  0.00  0.00  0.03  0.00
  YS02001779YS02001774    1.00   0.00  0.00  0.00  1.00  0.00  0.00  0.00  0.18  0.00
  YS02001649YS02001757    1.00   0.00  0.00  0.00  1.00  0.00  0.00  0.00  0.16  0.00
  YS02001767YS02001765    1.00   0.00  0.00  0.00  1.00  0.00  0.00  0.00  0.00  0.00
  YS02006561YS02001783    1.00   0.05  0.00  0.00  0.44  0.52  0.00  0.00  0.58  0.00
  YS02001783YS02001784    1.00   0.00  0.05  0.00  0.95  0.00  0.00  0.00  0.00  0.00
  YS02001784YS02001785    1.00   0.00  0.00  0.00  1.00  0.00  0.00  0.00  0.17  0.00
  YS02001788YS02001790    1.00   0.00  0.00  0.00  0.50  0.50  0.00  0.00  0.51  0.00
  YS02001790YS02001791    1.00   0.00  0.00  0.00  0.46  0.54  0.00  0.00  0.40  0.00
  YS02001791YS02001793    1.00   0.00  0.00  0.00  0.47  0.53  0.00  0.00  0.01  0.00
  YS02001910YS02001907    1.00   0.00  0.00  0.00  1.00  0.00  0.00  0.00  0.12  0.00
  YS02001786YS02001788    1.00   0.00  0.00  0.00  0.49  0.51  0.00  0.00  0.00  0.00
  YS02001915YS02001910    1.00   0.00  0.00  0.00  0.99  0.01  0.00  0.00  0.16  0.00
  YS02001918YS02001915    1.00   0.00  0.00  0.00  1.00  0.00  0.00  0.00  0.59  0.00
  YS02001923YS02001920    1.00   0.00  0.00  0.00  1.00  0.00  0.00  0.00  0.87  0.00
  YS02001926YS02001923    1.00   0.00  0.03  0.00  0.10  0.00  0.88  0.00  0.00  0.00
  YS02001929YS02001926    1.00   0.00  0.04  0.00  0.96  0.00  0.00  0.00  0.85  0.00
  YS02001920YS02001918    1.00   0.00  0.00  0.00  1.00  0.00  0.00  0.00  0.00  0.00
  YS02001629YS02163301    1.00   0.04  0.00  0.00  0.96  0.00  0.00  0.00  0.00  0.00
  YS02001619YS02001622    1.00   0.04  0.00  0.00  0.96  0.00  0.00  0.00  0.00  0.00
  YS02001622YS02001625    1.00   0.04  0.00  0.00  0.96  0.00  0.00  0.00  0.04  0.00
  YS02001625YS02001629    1.00   0.04  0.01  0.00  0.94  0.00  0.01  0.00  0.00  0.00
  YS02163301YS02001633    1.00   0.00  0.04  0.00  0.96  0.00  0.00  0.00  0.00  0.00
  YS02163601YS02164001    1.00   0.00  0.03  0.00  0.97  0.00  0.00  0.00  0.00  0.00
  YS02164001YS02001641    1.00   0.00  0.03  0.00  0.97  0.00  0.00  0.00  0.06  0.00
  YS02001641YS02001644    1.00   0.00  0.00  0.00  1.00  0.00  0.00  0.00  0.00  0.00
  YS02001647YS02001649    1.00   0.00  0.04  0.00  0.96  0.00  0.00  0.00  0.01  0.00
  YS02006553YS02006556    1.00   0.00  0.00  0.00  1.00  0.00  0.00  0.00  0.03  0.00
  YS02006556YS02006558    1.00   0.00  0.00  0.00  1.00  0.00  0.00  0.00  0.00  0.00
  YSB6556YSB1171          1.00   0.01  0.02  0.00  0.96  0.00  0.00  0.00  0.00  0.00
  YS02001907YS02006553    1.00   0.00  0.00  0.00  1.00  0.00  0.00  0.00  0.00  0.00
  YS02006558YS02006561    1.00   0.05  0.00  0.00  0.15  0.80  0.00  0.00  0.51  0.00
  YS02001633YS02163601    1.00   0.00  0.00  0.00  1.00  0.00  0.00  0.00  0.15  0.00
  YS02001644YS02001647    1.00   0.00  0.04  0.00  0.96  0.00  0.00  0.00  0.00  0.00
  YS02001745YS02001748    1.00   0.00  0.00  0.00  0.91  0.01  0.00  0.08  0.04  0.00
  YS02001748YS02001751    1.00   0.00  0.00  0.00  0.98  0.02  0.00  0.00  0.14  0.00
  YS02001751YS02001754    1.00   0.00  0.00  0.00  0.95  0.00  0.00  0.05  0.02  0.00
  YS02001754YS02001757    1.00   0.00  0.00  0.00  1.00  0.00  0.00  0.00  0.18  0.00
  YS02001882YS02001884    1.00   0.04  0.00  0.00  0.96  0.00  0.00  0.00  0.00  0.00
  YS02001884YS02001887    1.00   0.03  0.01  0.00  0.97  0.00  0.00  0.00  0.00  0.00
  YS02001890YS02001895    1.00   0.00  0.04  0.00  0.96  0.00  0.00  0.00  0.00  0.00
  YS02001895YS02001898    1.00   0.04  0.00  0.00  0.95  0.00  0.01  0.00  0.00  0.00
  YS02001898YS02001901    1.00   0.04  0.00  0.00  0.96  0.00  0.00  0.00  0.01  0.00
  YS02001901YS02001904    1.00   0.04  0.00  0.00  0.96  0.00  0.00  0.00  0.00  0.00
  YS02001904YS02001907    1.00   0.00  0.04  0.00  0.96  0.00  0.00  0.00  0.00  0.00
  YS02001887YS02001890    1.00   0.00  0.00  0.00  0.99  0.00  0.00  0.00  0.00  0.00
  YS02001652YS02001649    1.00   0.00  0.00  0.00  1.00  0.00  0.00  0.00  0.16  0.00
  YS02001655YS02001652    1.00   0.00  0.00  0.00  0.95  0.00  0.00  0.05  0.02  0.00
  YS02001658YS02001655    1.00   0.00  0.04  0.00  0.94  0.02  0.00  0.00  0.03  0.00
  YS02001661YS02001658    1.00   0.04  0.00  0.00  0.91  0.05  0.00  0.00  0.03  0.00
  YS02001664YS02001661    1.00   0.04  0.00  0.00  0.88  0.08  0.00  0.00  0.19  0.00
  YSB1154YSB6556          1.00   0.04  0.00  0.00  0.96  0.00  0.00  0.00  0.02  0.00
  YSB1174YSB1171          1.00   0.02  0.01  0.00  0.97  0.00  0.00  0.00  0.00  0.00
  YSB1171HS02004479       1.00   0.01  0.00  0.00  0.98  0.00  0.00  0.01  0.10  0.00
  HS02004881HS02006253    1.00   0.02  0.00  0.00  0.79  0.03  0.00  0.16  0.64  0.00
  YS02001793JiankangQianchi    1.00   0.00  0.00  0.00  0.58  0.42  0.00  0.00  0.14  0.00
  YS02001757CaochengTiaoxuchi    1.00   0.00  0.06  0.00  0.93  0.01  0.00  0.00  0.00  0.00
  WSF200WS02003060        1.00   0.00  0.01  0.00  0.58  0.41  0.00  0.00  0.32  0.00
  1                       1.00   0.00  0.00  0.00  0.00  1.00  0.00  0.00  0.33  0.00
  2                       1.00   0.56  0.00  0.00  0.00  0.44  0.00  0.00  0.09  0.00
  3                       1.00   0.08  0.00  0.00  0.00  0.92  0.00  0.00  0.06  0.00
  4                       1.00   1.00  0.00  0.00  0.00  0.00  0.00  0.00  0.00  0.00
  
  
  *************************
  Conduit Surcharge Summary
  *************************
  
  ----------------------------------------------------------------------------
                                                           Hours        Hours 
                         --------- Hours Full --------   Above Full   Capacity
  Conduit                Both Ends  Upstream  Dnstream   Normal Flow   Limited
  ----------------------------------------------------------------------------
  WS02006229WS02006228        2.50      2.83      2.50      5.06         2.50
  WS02006256WS02006235        6.30      6.30      7.65      2.97         0.01
  WS02006253WS02006251        0.01      0.01      0.01      0.01         0.01
  WS02006252WS02006251        1.30      1.30      2.45      2.15         0.01
  WS02006251WS02006249        0.01      0.01      0.01      1.39         0.01
  WS02006249WS02006248        0.01      0.01      0.01      4.67         0.01
  WS02006248WS02006247        0.01      0.01      0.01      0.01         0.01
  WS02006247WS02006245        0.01      0.02      0.01      5.08         0.01
  WS02006245WS02006243        0.01      0.01      0.17      0.01         0.01
  WS02006243WS02006242        0.34      0.34      1.64      0.01         0.01
  WS02006242WS02006240        0.75      0.75      2.13      2.39         0.01
  WS02006240WS02006239        1.10      1.10      1.16      0.01         0.01
  WS02006239WS02006238        1.98      1.98      2.18      0.01         0.01
  WS02006238WS02006235        1.99      1.99      2.57      0.01         0.01
  WS02006235WS02006234        0.81      0.81      1.72      6.30         0.01
  WS02006234WS02006232        1.18      1.18      2.82      0.01         0.01
  WS02006232WS02006231        0.32      0.32      2.82      0.01         0.01
  WS02006231WS02006230        0.13      0.13      0.66      6.36         0.01
  WS02006230WS02006229        3.87      4.72      3.87      6.56         3.87
  WS02006228WS02006109        2.67      3.38      2.67      5.62         2.67
  WS02006112WS02006115        0.01      0.01      1.23      0.01         0.01
  WS02006111WS02006112        0.01      0.01      5.19      0.01         0.01
  WS02006110WS02006113        0.01      0.01      3.08      0.01         0.01
  WS02006109WS02006110        1.02      1.02      3.38      1.03         0.01
  WS02004405WS02004406        0.01      0.01      0.01      1.18         0.01
  WS02004404WS02004405        0.01      0.16      0.01      6.22         0.01
  WS02004403WS02004404        0.01      0.01      0.16      0.01         0.01
  WS02003072WS02003073        0.01      0.01      0.01      5.61         0.01
  YS02001759YS02001757        5.98      5.98      6.04      0.01         0.01
  YS02001762YS02001759        5.96      5.96      5.98      0.01         0.01
  YS02001765YS02001762        5.94      5.94      5.96      0.01         0.01
  YS02001770YS02001767        5.92      5.92      5.92      0.12         0.88
  YS02001774YS02001770        5.90      5.90      5.95      0.01         0.01
  YS02001779YS02001774        5.73      5.73      5.95      0.01         0.01
  YS02001649YS02001757        5.96      5.96      6.04      0.01         0.01
  YS02001767YS02001765        5.92      5.92      5.94      0.01         0.01
  YS02006561YS02001783        0.01      0.01      1.34      0.01         0.01
  YS02001783YS02001784        1.34      1.34      1.42      0.89         0.82
  YS02001784YS02001785        1.35      1.42      1.35      2.02         1.34
  YS02001788YS02001790        1.33      1.33      2.99      0.01         0.01
  YS02001790YS02001791        2.99      2.99      3.02      0.01         0.01
  YS02001791YS02001793        3.02      3.02      3.12      0.01         0.01
  YS02001910YS02001907        0.83      0.83      1.43      0.01         0.01
  YS02001786YS02001788        1.33      1.35      1.33      1.66         1.32
  YS02001915YS02001910        0.45      0.45      0.83      0.01         0.01
  YS02001918YS02001915        0.01      0.01      0.45      0.01         0.01
  YS02001629YS02163301        5.89      5.89      5.91      0.01         0.01
  YS02001619YS02001622        5.54      5.54      5.58      0.01         0.01
  YS02001622YS02001625        5.58      5.58      5.79      0.01         0.01
  YS02001625YS02001629        5.55      5.55      5.79      0.01         0.01
  YS02163301YS02001633        5.91      5.91      5.95      0.01         0.01
  YS02163601YS02164001        5.94      5.94      5.96      0.01         0.01
  YS02164001YS02001641        5.94      5.94      5.94      0.01         0.02
  YS02001641YS02001644        5.94      5.94      5.95      1.05         1.33
  YS02001647YS02001649        5.76      5.76      5.96      0.01         0.01
  YS02006553YS02006556        1.13      1.13      1.49      0.01         0.01
  YS02006556YS02006558        1.32      1.32      1.56      0.01         0.01
  YS02001907YS02006553        2.04      2.04      2.24      0.01         0.01
  YS02006558YS02006561        0.65      1.07      0.65      1.89         0.65
  YS02001633YS02163601        5.93      5.93      5.96      0.01         0.01
  YS02001644YS02001647        5.76      5.76      5.95      0.01         0.01
  YS02001745YS02001748        0.01      0.01      5.25      0.01         0.01
  YS02001748YS02001751        5.34      5.34      5.51      0.01         0.01
  YS02001751YS02001754        5.51      5.51      5.75      0.01         0.01
  YS02001754YS02001757        5.77      5.77      6.04      0.01         0.01
  YS02001882YS02001884        0.48      0.48      0.56      0.01         0.01
  YS02001884YS02001887        0.66      0.66      0.71      0.01         0.01
  YS02001890YS02001895        0.41      0.41      0.86      0.01         0.01
  YS02001895YS02001898        0.37      0.37      0.41      0.01         0.01
  YS02001898YS02001901        0.43      0.43      0.65      0.01         0.01
  YS02001901YS02001904        0.61      0.61      0.65      0.01         0.01
  YS02001904YS02001907        0.61      0.61      1.51      0.01         0.01
  YS02001887YS02001890        0.76      0.76      0.81      0.01         0.01
  YS02001652YS02001649        5.77      5.77      5.96      0.01         0.01
  YS02001655YS02001652        5.58      5.58      5.76      0.01         0.01
  YS02001658YS02001655        5.29      5.29      5.58      0.01         0.01
  YS02001661YS02001658        0.17      0.17      5.29      0.01         0.01
  YS02001664YS02001661        0.01      0.01      0.76      0.01         0.01
  YS02001793JiankangQianchi        3.10      3.10      3.89      0.01         0.01
  YS02001757CaochengTiaoxuchi        5.15      5.15      6.04      0.01         0.01
  
  
  ***************
  Pumping Summary
  ***************
  
  ---------------------------------------------------------------------------------------------------------
                                                  Min       Avg       Max     Total     Power    % Time Off
                        Percent   Number of      Flow      Flow      Flow    Volume     Usage    Pump Curve
  Pump                 Utilized   Start-Ups       LPS       LPS       LPS  10^6 ltr     Kw-hr    Low   High
  ---------------------------------------------------------------------------------------------------------
  CC-Pump-1               59.89           7      0.00    148.06    200.00     2.454      3.69    0.0    7.5
  CC-Pump-2               64.15           6      0.00    146.33    200.00     2.580      3.53    0.0   10.4
  JK-Pump-1               82.97           5      0.00    182.89    300.00     3.520     32.19    0.0    0.0
  JK-Pump-2               76.59           5      0.00    151.46    300.00     2.683     32.71    0.0    0.0
  XR-Pump-1               87.21           9      0.00     65.41     95.00     1.710     16.83    0.0    0.0
  XR-Pump-2               85.09          11      0.00     59.20     95.00     1.539     14.43    0.0    0.0
  XR-Pump-3               91.48           5      0.00     73.08     95.00     1.852     17.03    0.0    0.0
  XR-Pump-4               78.71           7      0.00     70.70     95.00     1.653     18.08    0.0    0.0
  

  Analysis begun on:  Fri Dec 24 11:25:15 2021
  Analysis ended on:  Fri Dec 24 11:25:19 2021
  Total elapsed time: 00:00:04