
  EPA STORM WATER MANAGEMENT MODEL - VERSION 5.1 (Build 5.3.0.dev0)
  --------------------------------------------------------------

  WARNING 04: minimum elevation drop used for Conduit WS02004404WS02004405
  WARNING 03: negative offset ignored for Link YS02001904YS02001907
  
  *********************************************************
  NOTE: The summary statistics displayed in this report are
  based on results found at every computational time step,  
  not just on results from each reporting time step.
  *********************************************************
  
  ****************
  Analysis Options
  ****************
  Flow Units ............... LPS
  Process Models:
    Rainfall/Runoff ........ YES
    RDII ................... NO
    Snowmelt ............... NO
    Groundwater ............ NO
    Flow Routing ........... YES
    Ponding Allowed ........ NO
    Water Quality .......... NO
  Infiltration Method ...... HORTON
  Flow Routing Method ...... DYNWAVE
  Surcharge Method ......... EXTRAN
  Starting Date ............ 08/28/2015 08:00:00
  Ending Date .............. 08/28/2015 15:50:00
  Antecedent Dry Days ...... 8.0
  Report Time Step ......... 00:01:00
  Wet Time Step ............ 00:01:00
  Dry Time Step ............ 00:01:00
  Routing Time Step ........ 5.00 sec
  Variable Time Step ....... YES
  Maximum Trials ........... 8
  Number of Threads ........ 4
  Head Tolerance ........... 0.001500 m
  
  
  **************************        Volume         Depth
  Runoff Quantity Continuity     hectare-m            mm
  **************************     ---------       -------
  Total Precipitation ......         0.512         1.121
  Evaporation Loss .........         0.000         0.000
  Infiltration Loss ........         0.120         0.262
  Surface Runoff ...........         0.048         0.104
  Final Storage ............         0.345         0.756
  Continuity Error (%) .....        -0.006
  
  
  **************************        Volume        Volume
  Flow Routing Continuity        hectare-m      10^6 ltr
  **************************     ---------     ---------
  Dry Weather Inflow .......         0.616         6.165
  Wet Weather Inflow .......         0.048         0.475
  Groundwater Inflow .......         0.000         0.000
  RDII Inflow ..............         0.000         0.000
  External Inflow ..........         0.102         1.024
  External Outflow .........         0.790         7.901
  Flooding Loss ............         0.000         0.000
  Evaporation Loss .........         0.000         0.000
  Exfiltration Loss ........         0.000         0.000
  Initial Stored Volume ....         0.076         0.761
  Final Stored Volume ......         0.090         0.896
  Continuity Error (%) .....        -4.425
  
  
  *************************
  Highest Continuity Errors
  *************************
  Node YS02001757 (90.12%)
  Node HS02004842 (83.76%)
  Node HS02004901 (76.53%)
  Node YS02001774 (76.38%)
  Node YS02001884 (65.62%)
  
  
  ***************************
  Time-Step Critical Elements
  ***************************
  Link WS02006280WS02006229 (69.33%)
  Link 3 (11.66%)
  Link WS02006238WS02006235 (1.97%)
  
  
  ********************************
  Highest Flow Instability Indexes
  ********************************
  Link WS02006238WS02006235 (5)
  Link WS02006256WS02006235 (4)
  Link WS02004404WS02004405 (3)
  Link WS02004403WS02004404 (3)
  Link WS02004402WS02004403 (3)
  
  
  *************************
  Routing Time Step Summary
  *************************
  Minimum Time Step           :     0.60 sec
  Average Time Step           :     4.18 sec
  Maximum Time Step           :     5.00 sec
  Percent in Steady State     :     0.00
  Average Iterations per Step :     2.01
  Percent Not Converging      :     0.00
  
  
  ***************************
  Subcatchment Runoff Summary
  ***************************
  
  ------------------------------------------------------------------------------------------------------------------------------
                            Total      Total      Total      Total     Imperv       Perv      Total       Total     Peak  Runoff
                           Precip      Runon       Evap      Infil     Runoff     Runoff     Runoff      Runoff   Runoff   Coeff
  Subcatchment                 mm         mm         mm         mm         mm         mm         mm    10^6 ltr      LPS
  ------------------------------------------------------------------------------------------------------------------------------
  sub0                       1.12       0.00       0.00       0.08       0.26       0.00       0.26        0.00     0.07   0.230
  sub1                       1.12       0.00       0.00       0.12       0.24       0.00       0.24        0.00     0.31   0.212
  sub2                       1.12       0.00       0.00       0.41       0.17       0.00       0.17        0.00     0.27   0.147
  sub3                       1.12       0.00       0.00       0.41       0.16       0.00       0.16        0.00     0.52   0.142
  sub4                       1.12       0.00       0.00       0.12       0.21       0.00       0.21        0.00     0.56   0.191
  sub5                       1.12       0.00       0.00       0.08       0.25       0.00       0.25        0.00     0.55   0.222
  sub7                       1.12       0.00       0.00       0.10       0.25       0.00       0.25        0.00     0.21   0.222
  sub8                       1.12       0.00       0.00       0.10       0.25       0.00       0.25        0.00     0.36   0.221
  sub9                       1.12       0.00       0.00       0.10       0.25       0.00       0.25        0.00     0.26   0.220
  sub10                      1.12       0.00       0.00       0.09       0.25       0.00       0.25        0.00     0.56   0.221
  sub11                      1.12       0.00       0.00       0.09       0.25       0.00       0.25        0.00     0.68   0.224
  sub12                      1.12       0.00       0.00       0.15       0.24       0.00       0.24        0.00     0.61   0.215
  sub14                      1.12       0.00       0.00       0.10       0.25       0.00       0.25        0.00     0.52   0.220
  sub15                      1.12       0.00       0.00       0.34       0.19       0.00       0.19        0.00     0.69   0.169
  sub16                      1.12       0.00       0.00       0.37       0.18       0.00       0.18        0.00     0.53   0.165
  sub17                      1.12       0.00       0.00       0.36       0.19       0.00       0.19        0.00     0.42   0.167
  sub22                      1.12       0.00       0.00       0.48       0.16       0.00       0.16        0.01     2.34   0.139
  sub23                      1.12       0.00       0.00       0.41       0.17       0.00       0.17        0.01     2.01   0.154
  sub60                      1.12       0.00       0.00       0.13       0.11       0.00       0.11        0.03     2.23   0.097
  sub61                      1.12       0.00       0.00       0.19       0.13       0.00       0.13        0.04     2.98   0.115
  sub62                      1.12       0.00       0.00       0.09       0.13       0.00       0.13        0.04     3.00   0.119
  sub63                      1.12       0.00       0.00       0.33       0.12       0.00       0.12        0.04     2.84   0.106
  sub64                      1.12       0.00       0.00       0.17       0.10       0.00       0.10        0.03     2.11   0.092
  sub65                      1.12       0.00       0.00       0.15       0.10       0.00       0.10        0.03     2.13   0.092
  sub66                      1.12       0.00       0.00       0.33       0.09       0.00       0.09        0.03     1.98   0.083
  sub67                      1.12       0.00       0.00       0.09       0.16       0.00       0.16        0.05     4.05   0.144
  sub68                      1.12       0.00       0.00       0.16       0.14       0.00       0.14        0.04     3.34   0.125
  sub69                      1.12       0.00       0.00       0.17       0.17       0.00       0.17        0.04     3.52   0.149
  sub70                      1.12       0.17       0.00       0.44       0.11       0.00       0.11        0.03     1.79   0.088
  sub71                      1.12       0.00       0.00       0.09       0.12       0.00       0.12        0.03     2.05   0.110
  sub72                      1.12       0.00       0.00       0.08       0.07       0.00       0.07        0.01     0.86   0.064
  sub73                      1.12       0.11       0.00       0.42       0.10       0.00       0.10        0.02     1.68   0.084
  sub74                      1.12       0.00       0.00       0.84       0.05       0.00       0.05        0.02     2.01   0.047
  
  
  ******************
  Node Depth Summary
  ******************
  
  ---------------------------------------------------------------------------------
                                 Average  Maximum  Maximum  Time of Max    Reported
                                   Depth    Depth      HGL   Occurrence   Max Depth
  Node                 Type       Meters   Meters   Meters  days hr:min      Meters
  ---------------------------------------------------------------------------------
  WS02001211           JUNCTION     0.63     0.76     5.60     0  07:00        0.76
  WS02001212           JUNCTION     0.35     0.45     5.52     0  07:00        0.45
  WS02001213           JUNCTION     0.52     0.67     5.43     0  07:00        0.67
  WS02003069           JUNCTION     0.27     0.38     4.97     0  07:02        0.38
  WS02003072           JUNCTION     0.33     0.45     4.82     0  07:02        0.45
  WS02003073           JUNCTION     0.19     0.27     4.33     0  07:03        0.27
  WS02003060           JUNCTION     0.25     0.34     5.27     0  07:01        0.34
  WS02003066           JUNCTION     0.09     0.13     5.68     0  04:34        0.13
  WS02003059           JUNCTION     0.57     0.71     5.40     0  07:01        0.71
  WS02003067           JUNCTION     0.26     0.38     5.70     0  04:34        0.38
  WS02004401           JUNCTION     0.34     0.42     6.42     0  03:45        0.42
  WS02004402           JUNCTION     0.37     0.46     6.42     0  03:45        0.46
  WS02004403           JUNCTION     0.40     0.49     6.42     0  03:45        0.49
  WS02004404           JUNCTION     0.47     0.57     6.42     0  03:45        0.57
  WS02004406           JUNCTION     0.48     0.59     6.42     0  03:46        0.59
  WS02004409           JUNCTION     0.14     0.20     5.97     0  04:31        0.20
  WS02004410           JUNCTION     0.16     0.24     5.96     0  04:33        0.24
  WS02004411           JUNCTION     0.19     0.27     5.95     0  04:33        0.27
  WS02004412           JUNCTION     0.22     0.31     5.95     0  04:34        0.31
  WS02004413           JUNCTION     0.35     0.48     5.95     0  04:34        0.48
  WS02004405           JUNCTION     0.46     0.57     6.42     0  03:46        0.57
  WS02006109           JUNCTION     0.37     0.48     7.09     0  00:13        0.48
  WS02006110           JUNCTION     0.40     0.50     7.09     0  00:12        0.50
  WS02006111           JUNCTION     0.07     0.11     6.82     0  00:13        0.11
  WS02006112           JUNCTION     0.45     0.55     6.43     0  03:43        0.55
  WS02006113           JUNCTION     0.10     0.17     7.06     0  00:13        0.17
  WS02006115           JUNCTION     0.22     0.29     6.42     0  03:44        0.29
  WS02006116           JUNCTION     0.30     0.38     6.42     0  03:44        0.38
  WS02006230           JUNCTION     0.27     0.36     7.11     0  00:14        0.36
  WS02006231           JUNCTION     0.14     0.32     7.44     0  00:10        0.31
  WS02006232           JUNCTION     0.23     0.43     7.47     0  00:10        0.43
  WS02006234           JUNCTION     0.12     0.33     7.48     0  00:10        0.33
  WS02006235           JUNCTION     0.15     0.36     7.52     0  00:09        0.35
  WS02006238           JUNCTION     0.17     0.38     7.52     0  00:09        0.38
  WS02006240           JUNCTION     0.05     0.23     7.53     0  00:10        0.23
  WS02006242           JUNCTION     0.07     0.26     7.53     0  00:10        0.26
  WS02006243           JUNCTION     0.02     0.11     7.53     0  00:11        0.11
  WS02006245           JUNCTION     0.03     0.05     7.53     0  00:12        0.05
  WS02006247           JUNCTION     0.03     0.04     7.54     0  02:38        0.04
  WS02006248           JUNCTION     0.01     0.03     7.61     0  02:35        0.03
  WS02006249           JUNCTION     0.03     0.05     7.65     0  02:35        0.05
  WS02006239           JUNCTION     0.11     0.31     7.52     0  00:10        0.31
  WS02006251           JUNCTION     0.02     0.03     7.70     0  02:31        0.03
  WS02006252           JUNCTION     0.00     0.00     8.24     0  00:00        0.00
  WS02006253           JUNCTION     0.04     0.07     7.71     0  02:29        0.07
  WS02006256           JUNCTION     0.46     1.15     8.08     0  00:00        1.10
  WS02004138           JUNCTION     0.15     0.20     7.45     0  00:00        0.19
  WS02004407           JUNCTION     0.06     0.09     6.41     0  03:46        0.09
  WS02006228           JUNCTION     0.35     0.45     7.10     0  00:13        0.44
  WS02006229           JUNCTION     0.31     0.41     7.10     0  00:13        0.40
  WS02006280           JUNCTION     0.03     0.04     8.31     0  02:28        0.04
  WS02006284           JUNCTION     0.27     0.34     8.74     0  02:28        0.34
  WS02006287           JUNCTION     0.04     0.06     9.02     0  02:27        0.06
  WSF200               JUNCTION     0.06     0.09     5.32     0  04:35        0.09
  HS02004901           JUNCTION     0.06     0.09     9.91     0  03:29        0.09
  HS02004881           JUNCTION     0.00     0.00     9.03     0  02:27        0.00
  HS02004876           JUNCTION     0.01     0.02     9.05     0  02:29        0.02
  HS02004870           JUNCTION     0.00     0.00     9.29     0  02:21        0.00
  HS02004862           JUNCTION     0.00     0.01     9.39     0  03:33        0.01
  HS02004856           JUNCTION     0.04     0.07     9.50     0  03:28        0.07
  HS02004852           JUNCTION     0.00     0.00     9.51     0  02:43        0.00
  HS02004848           JUNCTION     0.00     0.00     9.60     0  02:21        0.00
  HS02004842           JUNCTION     0.28     0.33     9.60     0  02:21        0.33
  HS02004837           JUNCTION     0.02     0.02     9.60     0  02:21        0.02
  HS02004830           JUNCTION     0.03     0.03     9.50     0  02:22        0.03
  HS02004824           JUNCTION     0.01     0.01     9.42     0  02:24        0.01
  HS02004817           JUNCTION     0.34     0.42     9.27     0  02:27        0.42
  HS02004807           JUNCTION     0.07     0.10     9.27     0  02:27        0.10
  HS02004802           JUNCTION     0.10     0.14     9.27     0  02:27        0.14
  HS02004799           JUNCTION     0.06     0.08     9.29     0  02:24        0.08
  HS02004792           JUNCTION     0.01     0.01     9.54     0  02:15        0.01
  HS02004788           JUNCTION     0.01     0.01     9.91     0  03:26        0.01
  HS02004785           JUNCTION     0.01     0.01     9.91     0  03:32        0.01
  HS02004777           JUNCTION     0.08     0.12     9.91     0  03:34        0.12
  HS02004770           JUNCTION     0.05     0.08     9.91     0  03:35        0.08
  HS02004480           JUNCTION     0.03     0.05     9.29     0  02:26        0.05
  HS02004479           JUNCTION     0.06     0.08     9.29     0  02:25        0.08
  HS02004478           JUNCTION     0.03     0.04     9.27     0  02:27        0.04
  YS02001745           JUNCTION     0.01     0.02     7.54     0  03:01        0.02
  YS02001748           JUNCTION     0.02     0.03     7.10     0  03:01        0.03
  YS02001751           JUNCTION     0.02     0.08     6.96     0  07:50        0.08
  YS02001754           JUNCTION     0.12     0.35     6.96     0  07:50        0.35
  YS02001762           JUNCTION     0.25     0.56     6.96     0  07:50        0.56
  YS02001765           JUNCTION     0.22     0.51     6.96     0  07:50        0.51
  YS02001767           JUNCTION     0.20     0.47     6.96     0  07:50        0.47
  YS02001770           JUNCTION     0.19     0.46     6.96     0  07:50        0.46
  YS02001774           JUNCTION     0.23     0.54     6.96     0  07:50        0.54
  YS02001779           JUNCTION     0.07     0.27     6.96     0  07:50        0.27
  YS02001882           JUNCTION     0.07     0.13     6.84     0  03:39        0.13
  YS02001884           JUNCTION     0.14     0.23     6.84     0  03:36        0.23
  YS02001759           JUNCTION     0.27     0.59     6.96     0  07:50        0.59
  YS02001887           JUNCTION     0.21     0.30     6.84     0  03:37        0.30
  YS02001890           JUNCTION     0.24     0.34     6.84     0  03:37        0.34
  YS02001898           JUNCTION     0.06     0.10     6.84     0  03:37        0.10
  YS02001901           JUNCTION     0.14     0.23     6.84     0  03:38        0.23
  YS02001904           JUNCTION     0.12     0.21     6.84     0  03:39        0.21
  YS02001907           JUNCTION     0.40     0.55     6.84     0  03:39        0.55
  YS02001910           JUNCTION     0.22     0.33     6.84     0  03:41        0.33
  YS02001915           JUNCTION     0.08     0.12     6.84     0  03:40        0.12
  YS02001918           JUNCTION     0.03     0.03     7.10     0  03:12        0.03
  YS02001619           JUNCTION     0.02     0.05     6.97     0  03:01        0.05
  YS02001629           JUNCTION     0.15     0.41     6.96     0  07:50        0.41
  YS02001641           JUNCTION     0.23     0.52     6.96     0  07:50        0.52
  YS02001644           JUNCTION     0.24     0.52     6.96     0  07:50        0.52
  YS02001652           JUNCTION     0.13     0.36     6.96     0  07:50        0.36
  YS02001655           JUNCTION     0.03     0.11     6.96     0  07:50        0.11
  YS02001920           JUNCTION     0.10     0.10     7.11     0  03:11        0.10
  YS02001923           JUNCTION     0.01     0.02     7.28     0  03:08        0.02
  YS02001926           JUNCTION     0.04     0.05     7.50     0  03:07        0.05
  YS02001929           JUNCTION     0.01     0.02     7.71     0  03:01        0.02
  YS02001658           JUNCTION     0.01     0.03     7.17     0  03:01        0.03
  YS02001661           JUNCTION     0.06     0.10     7.50     0  03:00        0.10
  YS02001664           JUNCTION     0.01     0.02     7.95     0  02:59        0.02
  YS02001622           JUNCTION     0.02     0.05     6.96     0  07:50        0.05
  YS02001633           JUNCTION     0.22     0.50     6.96     0  07:50        0.50
  YS02001649           JUNCTION     0.25     0.57     6.96     0  07:50        0.57
  YS02001757           JUNCTION     0.36     0.70     6.96     0  07:50        0.70
  YS02001895           JUNCTION     0.05     0.09     6.84     0  03:37        0.09
  YS02001625           JUNCTION     0.20     0.35     6.96     0  07:50        0.35
  YS02163301           JUNCTION     0.17     0.44     6.96     0  07:50        0.44
  YS02163601           JUNCTION     0.27     0.56     6.96     0  07:50        0.56
  YS02164001           JUNCTION     0.21     0.50     6.96     0  07:50        0.50
  YS02001647           JUNCTION     0.11     0.35     6.96     0  07:50        0.35
  YSB1154              JUNCTION     0.17     0.23     9.29     0  02:24        0.23
  YSB6556              JUNCTION     0.08     0.12     9.29     0  02:24        0.12
  YSB1174              JUNCTION     0.13     0.18     9.29     0  02:26        0.18
  YSB1171              JUNCTION     0.30     0.38     9.29     0  02:25        0.38
  YS02006553           JUNCTION     0.40     0.55     6.84     0  03:39        0.55
  YS02006561           JUNCTION     0.02     0.05     6.71     0  03:39        0.05
  YS02006556           JUNCTION     0.38     0.53     6.84     0  03:38        0.53
  YS02006558           JUNCTION     0.43     0.57     6.84     0  03:38        0.57
  YS02001783           JUNCTION     0.04     0.07     6.22     0  03:39        0.07
  YS02001784           JUNCTION     0.06     0.10     6.17     0  03:43        0.10
  YS02001786           JUNCTION     0.06     0.09     6.12     0  03:43        0.09
  YS02001788           JUNCTION     0.04     0.06     6.03     0  03:44        0.06
  YS02001790           JUNCTION     0.05     0.07     5.72     0  03:44        0.07
  YS02001791           JUNCTION     0.03     0.05     5.52     0  03:50        0.05
  YS02001793           JUNCTION     0.02     0.03     4.86     0  03:51        0.03
  WS02004139           JUNCTION     0.58     0.71     5.62     0  07:00        0.71
  WSC                  OUTFALL      0.19     0.27     0.94     0  07:03        0.27
  3                    OUTFALL      0.01     0.13     6.13     0  00:00        0.10
  4                    OUTFALL      0.00     0.00     7.00     0  00:00        0.00
  5                    OUTFALL      0.00     0.00     5.00     0  00:00        0.00
  JK-storage           STORAGE      0.17     3.00     3.80     0  00:00        2.70
  CC-storage           STORAGE      0.00     0.00     7.00     0  00:00        0.00
  XR-storage           STORAGE      2.92     5.00     3.00     0  00:00        4.92
  
  
  *******************
  Node Inflow Summary
  *******************
  
  -------------------------------------------------------------------------------------------------
                                  Maximum  Maximum                  Lateral       Total        Flow
                                  Lateral    Total  Time of Max      Inflow      Inflow     Balance
                                   Inflow   Inflow   Occurrence      Volume      Volume       Error
  Node                 Type           LPS      LPS  days hr:min    10^6 ltr    10^6 ltr     Percent
  -------------------------------------------------------------------------------------------------
  WS02001211           JUNCTION      7.35   387.53     0  07:00       0.207        6.62       0.423
  WS02001212           JUNCTION      0.00   387.36     0  07:00           0        6.59       0.247
  WS02001213           JUNCTION      0.00   387.29     0  07:00           0        6.58       0.296
  WS02003069           JUNCTION      0.32   445.98     0  07:01     0.00902        7.82       0.197
  WS02003072           JUNCTION      0.00   445.94     0  07:02           0        7.81       0.286
  WS02003073           JUNCTION      1.82   447.72     0  07:02      0.0514        7.84       0.304
  WS02003060           JUNCTION     16.53   445.68     0  07:01       0.466        7.83       0.203
  WS02003066           JUNCTION      0.00    49.92     0  04:34           0       0.839       0.204
  WS02003059           JUNCTION      0.00   387.21     0  07:01           0        6.56       0.422
  WS02003067           JUNCTION      0.00    49.92     0  04:34           0       0.843       0.572
  WS02004401           JUNCTION      0.00    64.76     0  00:19           0       0.961       1.213
  WS02004402           JUNCTION      0.00    63.49     0  00:20           0       0.949       1.232
  WS02004403           JUNCTION      0.00    63.09     0  00:21           0       0.938       1.199
  WS02004404           JUNCTION      0.16    62.61     0  00:21     0.00457       0.931       0.987
  WS02004406           JUNCTION      0.00    55.74     0  00:21           0       0.909       2.514
  WS02004409           JUNCTION      0.00    50.34     0  03:46           0       0.885       0.483
  WS02004410           JUNCTION      0.00    50.19     0  03:47           0       0.881       0.679
  WS02004411           JUNCTION      0.00    50.01     0  03:48           0       0.875       0.819
  WS02004412           JUNCTION      0.00    49.94     0  04:31           0       0.868       1.052
  WS02004413           JUNCTION      0.00    49.93     0  04:32           0       0.859       1.809
  WS02004405           JUNCTION      0.04    60.54     0  00:21     0.00107       0.923       1.493
  WS02006109           JUNCTION      1.23   100.11     0  00:11      0.0347        1.02       1.203
  WS02006110           JUNCTION      0.00    87.93     0  00:12           0        1.01       0.928
  WS02006111           JUNCTION      0.00    77.37     0  00:13           0       0.994       0.135
  WS02006112           JUNCTION      0.42    76.69     0  00:13      0.0016       0.994       1.828
  WS02006113           JUNCTION      0.00    78.92     0  00:12           0       0.997       0.235
  WS02006115           JUNCTION      0.00    66.22     0  00:18           0       0.977       0.797
  WS02006116           JUNCTION      0.00    65.14     0  00:19           0       0.969       0.855
  WS02006230           JUNCTION     10.28   128.86     0  00:10        0.29       0.762       0.771
  WS02006231           JUNCTION      0.00   120.55     0  00:10           0       0.473       0.271
  WS02006232           JUNCTION      0.00   122.96     0  00:10           0       0.479       1.288
  WS02006234           JUNCTION      0.00   126.25     0  00:09           0       0.478      -0.164
  WS02006235           JUNCTION      0.00   166.25     0  00:01           0       0.513       0.674
  WS02006238           JUNCTION      0.00    88.90     0  00:00           0      0.0626       1.428
  WS02006240           JUNCTION      0.00    40.18     0  00:02           0      0.0322       0.282
  WS02006242           JUNCTION      0.00    28.67     0  00:04           0      0.0224       2.221
  WS02006243           JUNCTION      0.00     9.12     0  00:06           0      0.0155       0.775
  WS02006245           JUNCTION      0.00     2.23     0  00:09           0      0.0137       1.731
  WS02006247           JUNCTION      0.00     1.33     0  02:35           0      0.0133       0.637
  WS02006248           JUNCTION      0.00     1.33     0  02:35           0      0.0133       0.192
  WS02006249           JUNCTION      0.00     1.35     0  02:31           0      0.0136       2.061
  WS02006239           JUNCTION      0.00    71.08     0  00:01           0      0.0457       1.385
  WS02006251           JUNCTION      0.08     1.35     0  02:28     0.00217      0.0136       0.459
  WS02006252           JUNCTION      0.00     0.00     0  00:00           0           0       0.000 ltr
  WS02006253           JUNCTION      0.07     1.28     0  02:27    0.000209      0.0116       1.200
  WS02006256           JUNCTION      0.00   300.00     0  00:00           0       0.562       0.315
  WS02004138           JUNCTION      0.00   380.00     0  00:00           0        6.44       0.079
  WS02004407           JUNCTION      0.00    50.37     0  03:46           0       0.887       0.236
  WS02006228           JUNCTION      0.00   113.24     0  00:11           0        0.99       0.696
  WS02006229           JUNCTION      0.00   125.18     0  00:10           0       0.995       0.542
  WS02006280           JUNCTION      0.00    15.36     0  02:28           0        0.24       0.032
  WS02006284           JUNCTION      0.10    15.36     0  02:27      0.0027       0.241       0.480
  WS02006287           JUNCTION      0.00    15.27     0  02:27           0       0.239       0.282
  WSF200               JUNCTION      0.00    49.92     0  04:35           0       0.837       0.140
  HS02004901           JUNCTION      0.53     0.58     0  02:14     0.00193     0.00226     326.084
  HS02004881           JUNCTION      0.21     1.23     0  02:26     0.00084      0.0114       0.394
  HS02004876           JUNCTION      0.31     1.11     0  02:20     0.00158       0.011       3.996
  HS02004870           JUNCTION      0.36     0.81     0  02:18     0.00158     0.00952       0.912
  HS02004862           JUNCTION      0.47     0.47     0  02:20     0.00718     0.00807       1.748
  HS02004856           JUNCTION      0.26     0.36     0  02:29     0.00119      0.0023     157.062
  HS02004852           JUNCTION      0.00     0.17     0  02:36           0     0.00113       1.596
  HS02004848           JUNCTION      0.52     0.52     0  02:25     0.00358     0.00358       0.439
  HS02004842           JUNCTION      0.00     4.47     0  00:03           0      0.0155     515.925
  HS02004837           JUNCTION      6.91     7.28     0  02:20       0.182       0.184       0.441
  HS02004830           JUNCTION      0.15     7.42     0  02:21     0.00423       0.175       0.705
  HS02004824           JUNCTION      0.61     8.02     0  02:24     0.00587       0.179       0.294
  HS02004817           JUNCTION      0.60     8.62     0  02:25      0.0169       0.196       9.282
  HS02004807           JUNCTION      0.68     9.22     0  02:24     0.00291       0.182       2.358
  HS02004802           JUNCTION      0.00     9.21     0  02:27           0       0.178       2.322
  HS02004799           JUNCTION      0.52     5.34     0  02:15     0.00235      0.0746       2.952
  HS02004792           JUNCTION      2.62     4.84     0  02:14      0.0177      0.0726       0.559
  HS02004788           JUNCTION      2.36     2.42     0  03:19      0.0503      0.0563       0.679
  HS02004785           JUNCTION      0.15     0.85     0  02:58     0.00423     0.00863       4.892
  HS02004777           JUNCTION      0.03     1.33     0  02:10    0.000846     0.00853     147.979
  HS02004770           JUNCTION      2.01     2.02     0  02:11     0.00822     0.00875      53.439
  HS02004480           JUNCTION      0.00     6.13     0  02:25           0      0.0774       0.701
  HS02004479           JUNCTION      0.00     2.69     0  01:43           0      0.0152       4.902
  HS02004478           JUNCTION      0.00    15.27     0  02:26           0        0.24       0.339
  YS02001745           JUNCTION      2.24     2.24     0  03:01       0.033       0.033       0.181
  YS02001748           JUNCTION      0.04     2.28     0  03:01     0.00127      0.0342       0.112
  YS02001751           JUNCTION      0.01     2.29     0  03:01     0.00031      0.0345       2.861
  YS02001754           JUNCTION      0.26     2.55     0  03:02     0.00733      0.0408      21.030
  YS02001762           JUNCTION      0.00     2.57     0  04:16           0      0.0269      78.386
  YS02001765           JUNCTION      0.00     2.26     0  02:23           0      0.0246      97.122
  YS02001767           JUNCTION      0.54     2.90     0  02:37      0.0151      0.0331      95.713
  YS02001770           JUNCTION      3.15     3.15     0  03:01      0.0454      0.0459      42.555
  YS02001774           JUNCTION      0.00     1.67     0  03:52           0      0.0164     323.407
  YS02001779           JUNCTION      0.01     0.70     0  04:17    0.000141     0.00401    4262.525
  YS02001882           JUNCTION      0.00     0.43     0  02:31           0    0.000923     436.018
  YS02001884           JUNCTION      0.00     1.43     0  02:26           0     0.00428     190.881
  YS02001759           JUNCTION      3.02     3.53     0  02:20      0.0407        0.05      39.065
  YS02001887           JUNCTION      4.50     4.50     0  02:56      0.0624       0.063       8.377
  YS02001890           JUNCTION      0.00     3.95     0  03:18           0       0.054      11.315
  YS02001898           JUNCTION      0.00     3.72     0  03:37           0      0.0473       2.095
  YS02001901           JUNCTION      0.00     3.77     0  03:31           0      0.0485       7.550
  YS02001904           JUNCTION      0.00     3.77     0  03:32           0      0.0499       6.908
  YS02001907           JUNCTION      0.00     9.38     0  03:41           0       0.162      12.875
  YS02001910           JUNCTION      0.00     6.35     0  03:03           0       0.124       6.433
  YS02001915           JUNCTION      2.07     5.85     0  03:01      0.0297       0.126       1.668
  YS02001918           JUNCTION      0.00     3.81     0  03:11           0      0.0964       0.382
  YS02001619           JUNCTION      1.98     1.98     0  03:01      0.0284      0.0284       0.315
  YS02001629           JUNCTION      0.00     1.66     0  04:00           0      0.0189      31.307
  YS02001641           JUNCTION      0.00     3.42     0  03:16           0      0.0219      97.466
  YS02001644           JUNCTION      2.15     4.56     0  03:17      0.0324      0.0398      49.059
  YS02001652           JUNCTION      0.00     3.00     0  03:01           0      0.0383      22.836
  YS02001655           JUNCTION      0.15     3.00     0  03:01     0.00434      0.0398       3.976
  YS02001920           JUNCTION      2.87     3.81     0  03:08      0.0809      0.0975       1.130
  YS02001923           JUNCTION      0.04     0.94     0  03:08     0.00106      0.0166       0.300
  YS02001926           JUNCTION      0.05     0.91     0  03:01     0.00147      0.0159       2.764
  YS02001929           JUNCTION      0.86     0.86     0  03:01      0.0145      0.0145       0.248
  YS02001658           JUNCTION      0.00     2.84     0  03:00           0      0.0355       0.147
  YS02001661           JUNCTION      0.00     2.84     0  02:59           0       0.036       1.179
  YS02001664           JUNCTION      2.84     2.84     0  02:59       0.036       0.036       0.098
  YS02001622           JUNCTION      0.00     1.97     0  03:01           0      0.0283       2.917
  YS02001633           JUNCTION      2.33     3.44     0  04:04      0.0374      0.0453      51.912
  YS02001649           JUNCTION      0.00     4.51     0  03:17           0      0.0429      90.222
  YS02001757           JUNCTION      0.00     5.53     0  02:31           0      0.0688     912.446
  YS02001895           JUNCTION      0.00     3.78     0  03:30           0      0.0485       2.549
  YS02001625           JUNCTION      0.00     2.63     0  03:51           0      0.0277      57.873
  YS02163301           JUNCTION      0.00     1.68     0  04:04           0      0.0187     116.452
  YS02163601           JUNCTION      0.11     2.89     0  04:04      0.0031      0.0307     116.267
  YS02164001           JUNCTION      0.00     2.59     0  03:16           0      0.0203      95.211
  YS02001647           JUNCTION      0.00     3.12     0  03:16           0      0.0199      91.257
  YSB1154              JUNCTION      0.55     1.59     0  01:15     0.00282      0.0044      48.324
  YSB6556              JUNCTION      0.00     2.09     0  01:22           0     0.00561      27.816
  YSB1174              JUNCTION      0.61     1.07     0  01:38      0.0021     0.00329      62.996
  YSB1171              JUNCTION      0.00     2.75     0  01:17           0      0.0147      74.775
  YS02006553           JUNCTION      0.00     9.42     0  03:38           0       0.147       9.004
  YS02006561           JUNCTION      0.00    12.92     0  03:38           0       0.181       0.097
  YS02006556           JUNCTION      0.00     9.40     0  03:38           0       0.147       6.173
  YS02006558           JUNCTION      4.22    12.94     0  03:38      0.0679       0.199       1.840
  YS02001783           JUNCTION      0.00    12.91     0  03:39           0       0.181       0.226
  YS02001784           JUNCTION      1.06    13.96     0  03:39      0.0299        0.21       0.358
  YS02001786           JUNCTION      0.06    14.01     0  03:41     0.00159       0.211       0.403
  YS02001788           JUNCTION      0.07    14.08     0  03:41       0.002       0.212       0.192
  YS02001790           JUNCTION      0.15    14.23     0  03:44     0.00437       0.216       0.248
  YS02001791           JUNCTION      0.00    14.23     0  03:44           0       0.216       0.115
  YS02001793           JUNCTION      0.00    14.31     0  03:50           0       0.215       0.059
  WS02004139           JUNCTION      0.32   393.28     0  00:00     0.00905        6.45       0.521
  WSC                  OUTFALL       0.00   447.66     0  07:03           0        7.81       0.000
  3                    OUTFALL       0.00   239.66     0  00:00           0       0.088       0.000
  4                    OUTFALL       0.00     0.00     0  00:00           0           0       0.000 ltr
  5                    OUTFALL       0.00     0.00     0  00:00           0           0       0.000 ltr
  JK-storage           STORAGE       0.00    14.64     0  03:50           0       0.366     -34.743
  CC-storage           STORAGE       0.00     0.00     0  00:00           0           0       0.000 ltr
  XR-storage           STORAGE     203.64   203.64     0  02:53        5.69        6.29      -2.532
  
  
  **********************
  Node Surcharge Summary
  **********************
  
  No nodes were surcharged.
  
  
  *********************
  Node Flooding Summary
  *********************
  
  No nodes were flooded.
  
  
  **********************
  Storage Volume Summary
  **********************
  
  --------------------------------------------------------------------------------------------------
                         Average     Avg  Evap Exfil       Maximum     Max    Time of Max    Maximum
                          Volume    Pcnt  Pcnt  Pcnt        Volume    Pcnt     Occurrence    Outflow
  Storage Unit           1000 m3    Full  Loss  Loss       1000 m3    Full    days hr:min        LPS
  --------------------------------------------------------------------------------------------------
  JK-storage               0.009       3     0     0         0.151      52       0  00:00     300.00
  CC-storage               0.000       0     0     0         0.000       0       0  00:00       0.00
  XR-storage               0.350      38     0     0         0.600      65       0  00:00     380.00
  
  
  ***********************
  Outfall Loading Summary
  ***********************
  
  -----------------------------------------------------------
                         Flow       Avg       Max       Total
                         Freq      Flow      Flow      Volume
  Outfall Node           Pcnt       LPS       LPS    10^6 ltr
  -----------------------------------------------------------
  WSC                   99.97    250.68    447.66       7.813
  3                     11.68    150.65    239.66       0.088
  4                      0.00      0.00      0.00       0.000
  5                      0.00      0.00      0.00       0.000
  -----------------------------------------------------------
  System                27.91    401.32    447.66       7.901
  
  
  ********************
  Link Flow Summary
  ********************
  
  -----------------------------------------------------------------------------
                                 Maximum  Time of Max   Maximum    Max/    Max/
                                  |Flow|   Occurrence   |Veloc|    Full    Full
  Link                 Type          LPS  days hr:min     m/sec    Flow   Depth
  -----------------------------------------------------------------------------
  WS02003066WSF200     CONDUIT     49.92     0  04:35      1.44    0.01    0.07
  WS02006287WS02006284 CONDUIT     15.27     0  02:27      0.58    0.01    0.07
  WS02006284WS02006280 CONDUIT     15.36     0  02:28      0.85    0.01    0.06
  WS02006280WS02006229 CONDUIT     15.36     0  02:28      1.36    0.00    0.04
  WS02006229WS02006228 CONDUIT    113.24     0  00:11      0.83    0.38    0.51
  WS02006256WS02006235 CONDUIT    166.25     0  00:01      2.58    1.76    1.00
  WS02006253WS02006251 CONDUIT      1.27     0  02:28      0.12    0.00    0.06
  WS02006252WS02006251 CONDUIT      0.00     0  00:00      0.00    0.00    0.00
  WS02006251WS02006249 CONDUIT      1.35     0  02:31      0.14    0.00    0.06
  WS02006249WS02006248 CONDUIT      1.33     0  02:35      0.19    0.01    0.05
  WS02006248WS02006247 CONDUIT      1.33     0  02:35      0.22    0.00    0.04
  WS02006247WS02006245 CONDUIT      1.33     0  02:38      0.16    0.01    0.05
  WS02006245WS02006243 CONDUIT      2.23     0  00:09      0.24    0.01    0.10
  WS02006243WS02006242 CONDUIT     14.81     0  00:12      0.30    0.03    0.24
  WS02006242WS02006240 CONDUIT     29.20     0  00:12      0.64    0.12    0.34
  WS02006240WS02006239 CONDUIT     42.28     0  00:11      0.58    0.13    0.36
  WS02006239WS02006238 CONDUIT     71.08     0  00:01      0.67    0.23    0.48
  WS02006238WS02006235 CONDUIT     95.67     0  00:11      1.25    0.21    0.52
  WS02006235WS02006234 CONDUIT    126.25     0  00:09      0.93    1.33    0.47
  WS02006234WS02006232 CONDUIT    122.96     0  00:10      1.13    0.25    0.54
  WS02006232WS02006231 CONDUIT    120.55     0  00:10      0.63    0.25    0.53
  WS02006231WS02006230 CONDUIT    118.58     0  00:10      0.90    1.80    0.38
  WS02006230WS02006229 CONDUIT    125.18     0  00:10      0.86    2.79    0.51
  WS02006228WS02006109 CONDUIT     98.88     0  00:11      0.74    0.43    0.56
  WS02006116WS02004401 CONDUIT     64.76     0  00:19      0.73    0.09    0.40
  WS02006115WS02006116 CONDUIT     65.14     0  00:19      0.80    0.08    0.30
  WS02006113WS02006111 CONDUIT     77.37     0  00:13      1.32    0.09    0.17
  WS02006112WS02006115 CONDUIT     66.22     0  00:18      0.33    0.04    0.41
  WS02006111WS02006112 CONDUIT     76.69     0  00:13      1.33    0.04    0.38
  WS02006110WS02006113 CONDUIT     78.92     0  00:12      0.40    0.07    0.42
  WS02006109WS02006110 CONDUIT     87.93     0  00:12      0.53    0.17    0.54
  WS02004411WS02004412 CONDUIT     49.94     0  04:31      0.39    0.07    0.29
  WS02004401WS02004402 CONDUIT     63.49     0  00:20      0.77    0.08    0.44
  WS02004413WS02003067 CONDUIT     49.92     0  04:34      0.27    0.02    0.29
  WS02004412WS02004413 CONDUIT     49.93     0  04:32      0.37    0.03    0.39
  WS02004410WS02004411 CONDUIT     50.01     0  03:48      0.34    0.07    0.26
  WS02004409WS02004410 CONDUIT     50.19     0  03:47      0.39    0.06    0.22
  WS02004407WS02004409 CONDUIT     50.34     0  03:46      0.69    0.02    0.15
  WS02004406WS02004407 CONDUIT     50.37     0  03:46      0.21    0.02    0.34
  WS02004405WS02004406 CONDUIT     55.74     0  00:21      0.66    0.11    0.58
  WS02004404WS02004405 CONDUIT     60.50     0  00:21      0.84    0.59    0.57
  WS02004403WS02004404 CONDUIT     62.45     0  00:21      0.74    0.05    0.53
  WS02004402WS02004403 CONDUIT     63.09     0  00:21      0.76    0.09    0.47
  WS02004139WS02001211 CONDUIT    380.18     0  07:00      0.90    0.48    0.57
  WS02004138WS02004139 CONDUIT    392.96     0  00:00      3.64    0.08    0.42
  WS02003067WS02003066 CONDUIT     49.92     0  04:34      0.28    0.02    0.21
  WS02001213WS02003059 CONDUIT    387.21     0  07:01      0.90    0.64    0.68
  WS02001212WS02001213 CONDUIT    387.29     0  07:00      1.32    0.60    0.40
  WS02001211WS02001212 CONDUIT    387.36     0  07:00      0.78    0.30    0.61
  WS02003072WS02003073 CONDUIT    445.90     0  07:02      1.33    0.96    0.34
  WS02003069WS02003072 CONDUIT    445.94     0  07:02      1.28    0.21    0.35
  WS02003060WS02003069 CONDUIT    445.66     0  07:01      1.56    0.17    0.30
  WS02003059WS02003060 CONDUIT    387.13     0  07:01      0.93    0.25    0.53
  HS02004901HS02004770 CONDUIT      0.26     0  02:52      0.03    0.00    0.13
  HS02004876HS02004881 CONDUIT      1.06     0  02:29      0.09    0.01    0.02
  HS02004870HS02004876 CONDUIT      0.80     0  02:21      0.07    0.00    0.02
  HS02004842HS02004848 CONDUIT      0.37     0  02:21      0.00    0.00    0.24
  HS02004837HS02004842 CONDUIT      4.47     0  00:03      0.41    0.00    0.25
  HS02004830HS02004837 CONDUIT      7.27     0  02:21      0.27    0.01    0.04
  HS02004824HS02004830 CONDUIT      7.42     0  02:22      0.31    0.01    0.03
  HS02004817HS02004824 CONDUIT      8.02     0  02:25      0.17    0.00    0.31
  HS02004770HS02004777 CONDUIT      1.07     0  02:52      0.03    0.00    0.14
  HS02004799HS02004480 CONDUIT      5.19     0  02:19      0.09    0.01    0.08
  HS02004792HS02004799 CONDUIT      4.83     0  02:15      0.23    0.00    0.07
  HS02004788HS02004792 CONDUIT      2.42     0  03:26      0.25    0.00    0.02
  HS02004785HS02004788 CONDUIT      0.58     0  03:32      0.05    0.00    0.02
  HS02004777HS02004785 CONDUIT      0.70     0  02:58      0.07    0.00    0.09
  HS02004480HS02004478 CONDUIT      6.08     0  02:26      0.21    0.03    0.04
  HS02004479HS02004480 CONDUIT      2.69     0  01:43      0.15    0.00    0.09
  HS02004862HS02004870 CONDUIT      0.46     0  02:24      0.10    0.00    0.01
  HS02004848HS02004852 CONDUIT      0.17     0  02:36      0.00    0.00    0.00
  HS02004856HS02004862 CONDUIT      0.16     0  03:28      0.04    0.00    0.01
  HS02004852HS02004856 CONDUIT      0.16     0  02:43      0.01    0.00    0.05
  HS02004802HS02004478 CONDUIT      9.21     0  02:28      0.10    0.01    0.13
  HS02004478WS02006287 CONDUIT     15.27     0  02:27      0.38    0.00    0.04
  HS02004817HS02004807 CONDUIT      8.62     0  02:28      0.05    0.01    0.38
  HS02004807HS02004802 CONDUIT      9.21     0  02:27      0.19    0.02    0.17
  YS02001759YS02001757 CONDUIT      2.74     0  03:16      0.12    0.00    0.64
  YS02001762YS02001759 CONDUIT      2.57     0  04:16      0.17    0.00    0.57
  YS02001765YS02001762 CONDUIT      1.94     0  02:20      0.20    0.00    0.53
  YS02001770YS02001767 CONDUIT      2.37     0  02:37      0.15    0.01    0.46
  YS02001774YS02001770 CONDUIT      1.67     0  03:52      0.11    0.00    0.48
  YS02001779YS02001774 CONDUIT      0.70     0  04:17      0.01    0.00    0.40
  YS02001649YS02001757 CONDUIT      2.59     0  03:53      0.09    0.00    0.63
  YS02001767YS02001765 CONDUIT      2.26     0  02:23      0.22    0.00    0.49
  YS02006561YS02001783 CONDUIT     12.91     0  03:39      0.75    0.01    0.08
  YS02001783YS02001784 CONDUIT     12.90     0  03:39      0.44    0.02    0.11
  YS02001784YS02001785 CONDUIT     13.96     0  03:41      0.41    0.03    0.12
  YS02001788YS02001790 CONDUIT     14.08     0  03:44      0.74    0.01    0.08
  YS02001790YS02001791 CONDUIT     14.23     0  03:44      0.84    0.02    0.07
  YS02001791YS02001793 CONDUIT     14.31     0  03:50      1.55    0.01    0.05
  YS02001910YS02001907 CONDUIT      5.89     0  03:19      0.49    0.00    0.43
  YS02001786YS02001788 CONDUIT     14.01     0  03:41      0.60    0.03    0.09
  YS02001915YS02001910 CONDUIT      6.35     0  03:03      0.44    0.00    0.23
  YS02001918YS02001915 CONDUIT      3.81     0  03:12      0.44    0.00    0.08
  YS02001923YS02001920 CONDUIT      0.94     0  03:08      0.05    0.00    0.06
  YS02001926YS02001923 CONDUIT      0.91     0  03:08      0.13    0.00    0.03
  YS02001929YS02001926 CONDUIT      0.86     0  03:01      0.10    0.00    0.03
  YS02001920YS02001918 CONDUIT      3.81     0  03:11      0.16    0.00    0.07
  YS02001629YS02163301 CONDUIT      1.68     0  04:04      0.03    0.00    0.42
  YS02001619YS02001622 CONDUIT      1.97     0  03:01      0.23    0.00    0.04
  YS02001622YS02001625 CONDUIT      2.63     0  03:51      0.12    0.00    0.20
  YS02001625YS02001629 CONDUIT      1.66     0  04:00      0.02    0.00    0.19
  YS02163301YS02001633 CONDUIT      1.66     0  07:34      0.02    0.00    0.47
  YS02163601YS02164001 CONDUIT      2.31     0  04:05      0.02    0.00    0.53
  YS02164001YS02001641 CONDUIT      2.59     0  03:16      0.06    0.00    0.51
  YS02001641YS02001644 CONDUIT      3.42     0  03:16      0.03    0.01    0.52
  YS02001647YS02001649 CONDUIT      3.12     0  03:16      0.05    0.00    0.46
  YS02006553YS02006556 CONDUIT      9.40     0  03:38      0.18    0.01    0.52
  YS02006556YS02006558 CONDUIT      9.34     0  03:45      0.07    0.01    0.55
  YSB6556YSB1171       CONDUIT      2.09     0  01:22      0.03    0.00    0.36
  YS02001907YS02006553 CONDUIT      9.42     0  03:38      0.06    0.01    0.60
  YS02006558YS02006561 CONDUIT     12.92     0  03:38      0.90    0.03    0.10
  YS02001633YS02163601 CONDUIT      2.78     0  04:04      0.06    0.00    0.52
  YS02001644YS02001647 CONDUIT      2.52     0  03:17      0.05    0.00    0.44
  YS02001745YS02001748 CONDUIT      2.24     0  03:01      0.60    0.00    0.02
  YS02001748YS02001751 CONDUIT      2.28     0  03:01      0.41    0.00    0.05
  YS02001751YS02001754 CONDUIT      2.29     0  03:02      0.54    0.00    0.19
  YS02001754YS02001757 CONDUIT      2.62     0  03:29      0.33    0.00    0.52
  YS02001882YS02001884 CONDUIT      0.43     0  02:31      0.04    0.00    0.15
  YS02001884YS02001887 CONDUIT      1.43     0  02:26      0.02    0.00    0.24
  YS02001890YS02001895 CONDUIT      3.78     0  03:30      0.03    0.00    0.22
  YS02001895YS02001898 CONDUIT      3.72     0  03:37      0.17    0.01    0.08
  YS02001898YS02001901 CONDUIT      3.77     0  03:31      0.04    0.00    0.17
  YS02001901YS02001904 CONDUIT      3.77     0  03:32      0.15    0.01    0.22
  YS02001904YS02001907 CONDUIT      3.75     0  03:35      0.02    0.00    0.38
  YS02001887YS02001890 CONDUIT      3.95     0  03:18      0.10    0.01    0.30
  YS02001652YS02001649 CONDUIT      3.00     0  03:02      0.21    0.00    0.46
  YS02001655YS02001652 CONDUIT      3.00     0  03:01      0.54    0.00    0.22
  YS02001658YS02001655 CONDUIT      2.84     0  03:01      0.46    0.00    0.06
  YS02001661YS02001658 CONDUIT      2.84     0  03:00      0.52    0.00    0.03
  YS02001664YS02001661 CONDUIT      2.84     0  02:59      0.15    0.00    0.06
  YSB1154YSB6556       CONDUIT      1.58     0  01:15      0.19    0.00    0.25
  YSB1174YSB1171       CONDUIT      1.05     0  01:17      0.02    0.00    0.37
  YSB1171HS02004479    CONDUIT      2.62     0  01:42      0.54    0.00    0.26
  HS02004881HS02006253 CONDUIT      1.23     0  02:27      0.00    0.00    0.00
  YS02001793JiankangQianchi CONDUIT     14.64     0  03:50      5.17    0.00    0.50
  YS02001757CaochengTiaoxuchi CONDUIT      0.00     0  00:00      0.00    0.00    0.35
  WSF200WS02003060     CONDUIT     49.92     0  04:35      0.57    0.01    0.18
  1                    CONDUIT    447.66     0  07:03      2.66    0.16    0.27
  2                    CONDUIT      0.00     0  00:00      0.00    0.00    0.00
  3                    CONDUIT    239.66     0  00:00      8.18    0.38    0.45
  4                    CONDUIT      0.00     0  00:00      0.00    0.00    0.00
  CC-Pump-1            PUMP         0.00     0  00:00              0.00
  CC-Pump-2            PUMP         0.00     0  00:00              0.00
  JK-Pump-1            PUMP        20.51     0  03:50              0.07
  JK-Pump-2            PUMP       300.00     0  00:00              1.00
  XR-Pump-1            PUMP        95.00     0  00:00              1.00
  XR-Pump-2            PUMP        95.00     0  00:00              1.00
  XR-Pump-3            PUMP        95.00     0  00:00              1.00
  XR-Pump-4            PUMP        95.00     0  00:00              1.00
  
  
  ***************************
  Flow Classification Summary
  ***************************
  
  -------------------------------------------------------------------------------------
                      Adjusted    ---------- Fraction of Time in Flow Class ---------- 
                       /Actual         Up    Down  Sub   Sup   Up    Down  Norm  Inlet 
  Conduit               Length    Dry  Dry   Dry   Crit  Crit  Crit  Crit  Ltd   Ctrl  
  -------------------------------------------------------------------------------------
  WS02003066WSF200        1.00   0.21  0.08  0.00  0.00  0.71  0.00  0.00  0.77  0.00
  WS02006287WS02006284    1.00   0.19  0.07  0.00  0.74  0.00  0.00  0.00  0.81  0.00
  WS02006284WS02006280    1.00   0.22  0.00  0.00  0.00  0.00  0.00  0.78  0.00  0.00
  WS02006280WS02006229    1.00   0.22  0.00  0.00  0.00  0.00  0.00  0.78  0.00  0.00
  WS02006229WS02006228    1.00   0.00  0.00  0.00  0.93  0.00  0.00  0.07  0.00  0.00
  WS02006256WS02006235    1.00   0.00  0.00  0.00  0.98  0.02  0.00  0.00  0.00  0.00
  WS02006253WS02006251    1.00   0.14  0.06  0.00  0.79  0.00  0.01  0.00  0.00  0.00
  WS02006252WS02006251    1.00   1.00  0.00  0.00  0.00  0.00  0.00  0.00  0.00  0.00
  WS02006251WS02006249    1.00   0.00  0.00  0.00  1.00  0.00  0.00  0.00  0.98  0.00
  WS02006249WS02006248    1.00   0.00  0.10  0.00  0.00  0.00  0.89  0.00  0.00  0.00
  WS02006248WS02006247    1.00   0.11  0.00  0.00  0.88  0.00  0.00  0.01  0.87  0.00
  WS02006247WS02006245    1.00   0.10  0.00  0.00  0.90  0.00  0.00  0.00  0.00  0.00
  WS02006245WS02006243    1.00   0.06  0.02  0.00  0.74  0.00  0.00  0.18  0.01  0.00
  WS02006243WS02006242    1.00   0.04  0.02  0.00  0.95  0.00  0.00  0.00  0.97  0.00
  WS02006242WS02006240    1.00   0.02  0.00  0.00  0.98  0.00  0.00  0.00  0.00  0.00
  WS02006240WS02006239    1.00   0.01  0.00  0.00  0.71  0.00  0.00  0.28  0.16  0.00
  WS02006239WS02006238    1.00   0.00  0.00  0.00  1.00  0.00  0.00  0.00  0.00  0.00
  WS02006238WS02006235    1.00   0.00  0.00  0.00  0.99  0.01  0.00  0.00  0.00  0.00
  WS02006235WS02006234    1.00   0.00  0.00  0.00  0.69  0.00  0.31  0.00  0.00  0.00
  WS02006234WS02006232    1.00   0.00  0.00  0.00  0.99  0.01  0.00  0.00  0.11  0.00
  WS02006232WS02006231    1.00   0.00  0.01  0.00  0.96  0.00  0.02  0.00  0.00  0.00
  WS02006231WS02006230    1.00   0.02  0.00  0.00  0.00  0.00  0.98  0.00  0.00  0.00
  WS02006230WS02006229    1.00   0.00  0.00  0.00  0.93  0.00  0.00  0.07  0.00  0.00
  WS02006228WS02006109    1.00   0.00  0.00  0.00  0.98  0.00  0.00  0.02  0.00  0.00
  WS02006116WS02004401    1.00   0.12  0.00  0.00  0.88  0.00  0.00  0.00  0.00  0.00
  WS02006115WS02006116    1.00   0.12  0.00  0.00  0.85  0.00  0.00  0.03  0.00  0.00
  WS02006113WS02006111    1.00   0.10  0.00  0.00  0.01  0.90  0.00  0.00  0.00  0.00
  WS02006112WS02006115    1.00   0.11  0.01  0.00  0.87  0.00  0.01  0.00  0.00  0.00
  WS02006111WS02006112    1.00   0.11  0.00  0.00  0.88  0.00  0.00  0.01  0.98  0.00
  WS02006110WS02006113    1.00   0.06  0.04  0.00  0.90  0.00  0.00  0.00  0.00  0.00
  WS02006109WS02006110    1.00   0.00  0.05  0.00  0.91  0.00  0.04  0.00  0.00  0.00
  WS02004411WS02004412    1.00   0.19  0.00  0.00  0.81  0.00  0.00  0.00  0.00  0.00
  WS02004401WS02004402    1.00   0.13  0.00  0.00  0.87  0.00  0.00  0.00  0.00  0.00
  WS02004413WS02003067    1.00   0.20  0.07  0.00  0.00  0.00  0.74  0.00  0.00  0.00
  WS02004412WS02004413    1.00   0.19  0.00  0.00  0.81  0.00  0.00  0.00  0.03  0.00
  WS02004410WS02004411    1.00   0.19  0.00  0.00  0.81  0.00  0.00  0.00  0.04  0.00
  WS02004409WS02004410    1.00   0.19  0.00  0.00  0.81  0.00  0.00  0.00  0.04  0.00
  WS02004407WS02004409    1.00   0.19  0.00  0.00  0.80  0.01  0.00  0.00  0.89  0.00
  WS02004406WS02004407    1.00   0.01  0.18  0.00  0.81  0.00  0.00  0.00  0.00  0.00
  WS02004405WS02004406    1.00   0.00  0.00  0.00  1.00  0.00  0.00  0.00  0.00  0.00
  WS02004404WS02004405    1.00   0.00  0.00  0.00  1.00  0.00  0.00  0.00  0.00  0.00
  WS02004403WS02004404    1.00   0.00  0.13  0.00  0.87  0.00  0.00  0.00  0.01  0.00
  WS02004402WS02004403    1.00   0.13  0.00  0.00  0.87  0.00  0.00  0.00  0.00  0.00
  WS02004139WS02001211    1.00   0.00  0.00  0.00  0.98  0.00  0.02  0.00  0.00  0.00
  WS02004138WS02004139    1.00   0.00  0.00  0.00  0.96  0.03  0.00  0.01  1.00  0.00
  WS02003067WS02003066    1.00   0.26  0.02  0.00  0.72  0.00  0.00  0.00  0.00  0.00
  WS02001213WS02003059    1.00   0.01  0.01  0.00  0.97  0.00  0.00  0.01  0.00  0.00
  WS02001212WS02001213    1.00   0.02  0.01  0.00  0.02  0.00  0.96  0.00  0.00  0.00
  WS02001211WS02001212    1.00   0.00  0.01  0.00  0.99  0.00  0.00  0.00  0.00  0.00
  WS02003072WS02003073    1.00   0.00  0.00  0.00  0.00  0.00  0.00  1.00  0.00  0.00
  WS02003069WS02003072    1.00   0.00  0.00  0.00  0.96  0.04  0.00  0.00  0.86  0.00
  WS02003060WS02003069    1.00   0.00  0.00  0.00  0.90  0.10  0.00  0.00  0.56  0.00
  WS02003059WS02003060    1.00   0.00  0.00  0.00  0.98  0.02  0.00  0.00  0.01  0.00
  HS02004901HS02004770    1.00   0.22  0.01  0.00  0.77  0.00  0.00  0.00  0.05  0.00
  HS02004876HS02004881    1.00   0.11  0.00  0.00  0.89  0.00  0.00  0.00  0.00  0.00
  HS02004870HS02004876    1.00   0.02  0.00  0.00  0.97  0.01  0.00  0.00  0.95  0.00
  HS02004842HS02004848    1.00   0.00  0.24  0.00  0.76  0.00  0.00  0.00  0.84  0.00
  HS02004837HS02004842    1.00   0.00  0.00  0.00  0.96  0.04  0.00  0.00  0.11  0.00
  HS02004830HS02004837    1.00   0.00  0.00  0.00  0.99  0.01  0.00  0.00  0.99  0.00
  HS02004824HS02004830    1.00   0.00  0.00  0.00  1.00  0.00  0.00  0.00  0.00  0.00
  HS02004817HS02004824    1.00   0.00  0.00  0.00  1.00  0.00  0.00  0.00  1.00  0.00
  HS02004770HS02004777    1.00   0.00  0.23  0.00  0.77  0.00  0.00  0.00  0.08  0.00
  HS02004799HS02004480    1.00   0.01  0.12  0.00  0.71  0.00  0.16  0.00  0.00  0.00
  HS02004792HS02004799    1.00   0.00  0.00  0.00  0.93  0.07  0.00  0.00  0.98  0.00
  HS02004788HS02004792    1.00   0.00  0.00  0.00  0.94  0.06  0.00  0.00  0.98  0.00
  HS02004785HS02004788    1.00   0.00  0.00  0.00  1.00  0.00  0.00  0.00  0.00  0.00
  HS02004777HS02004785    1.00   0.00  0.00  0.00  1.00  0.00  0.00  0.00  0.31  0.00
  HS02004480HS02004478    1.00   0.26  0.00  0.00  0.71  0.00  0.02  0.00  0.00  0.00
  HS02004479HS02004480    1.00   0.13  0.00  0.00  0.87  0.00  0.00  0.00  0.17  0.00
  HS02004862HS02004870    1.00   0.00  0.00  0.00  1.00  0.00  0.00  0.00  0.06  0.00
  HS02004848HS02004852    1.00   0.24  0.00  0.00  0.76  0.00  0.00  0.00  0.65  0.00
  HS02004856HS02004862    1.00   0.00  0.47  0.00  0.53  0.00  0.00  0.00  0.59  0.00
  HS02004852HS02004856    1.00   0.22  0.06  0.00  0.71  0.00  0.00  0.00  0.78  0.00
  HS02004802HS02004478    1.00   0.22  0.03  0.00  0.75  0.00  0.00  0.00  0.00  0.00
  HS02004478WS02006287    1.00   0.26  0.00  0.00  0.73  0.00  0.00  0.00  0.80  0.00
  HS02004817HS02004807    1.00   0.00  0.22  0.00  0.78  0.00  0.00  0.00  0.00  0.00
  HS02004807HS02004802    1.00   0.22  0.00  0.00  0.77  0.00  0.00  0.01  0.01  0.00
  YS02001759YS02001757    1.00   0.00  0.00  0.00  1.00  0.00  0.00  0.00  0.17  0.00
  YS02001762YS02001759    1.00   0.00  0.01  0.00  0.99  0.00  0.00  0.00  0.08  0.00
  YS02001765YS02001762    1.00   0.00  0.00  0.00  1.00  0.00  0.00  0.00  0.28  0.00
  YS02001770YS02001767    1.00   0.00  0.00  0.00  1.00  0.00  0.00  0.00  0.00  0.00
  YS02001774YS02001770    1.00   0.01  0.30  0.00  0.69  0.00  0.00  0.00  0.08  0.00
  YS02001779YS02001774    1.00   0.00  0.00  0.00  1.00  0.00  0.00  0.00  0.46  0.00
  YS02001649YS02001757    1.00   0.00  0.00  0.00  0.99  0.00  0.00  0.00  0.20  0.00
  YS02001767YS02001765    1.00   0.00  0.00  0.00  1.00  0.00  0.00  0.00  0.02  0.00
  YS02006561YS02001783    1.00   0.40  0.00  0.00  0.00  0.60  0.00  0.00  0.65  0.00
  YS02001783YS02001784    1.00   0.00  0.40  0.00  0.60  0.00  0.00  0.00  0.65  0.00
  YS02001784YS02001785    1.00   0.00  0.00  0.00  1.00  0.00  0.00  0.00  0.35  0.00
  YS02001788YS02001790    1.00   0.00  0.00  0.00  0.43  0.57  0.00  0.00  1.00  0.00
  YS02001790YS02001791    1.00   0.00  0.00  0.00  0.08  0.92  0.00  0.00  0.00  0.00
  YS02001791YS02001793    1.00   0.00  0.00  0.00  0.00  1.00  0.00  0.00  0.00  0.00
  YS02001910YS02001907    1.00   0.00  0.00  0.00  0.87  0.00  0.00  0.12  0.13  0.00
  YS02001786YS02001788    1.00   0.00  0.00  0.00  1.00  0.00  0.00  0.00  0.00  0.00
  YS02001915YS02001910    1.00   0.00  0.00  0.00  0.95  0.05  0.00  0.00  0.31  0.00
  YS02001918YS02001915    1.00   0.00  0.03  0.00  0.90  0.07  0.00  0.00  0.75  0.00
  YS02001923YS02001920    1.00   0.00  0.00  0.00  1.00  0.00  0.00  0.00  1.00  0.00
  YS02001926YS02001923    1.00   0.00  0.17  0.00  0.00  0.00  0.83  0.00  0.00  0.00
  YS02001929YS02001926    1.00   0.00  0.22  0.00  0.78  0.00  0.00  0.00  0.86  0.00
  YS02001920YS02001918    1.00   0.00  0.03  0.00  0.97  0.00  0.00  0.00  0.00  0.00
  YS02001629YS02163301    1.00   0.34  0.03  0.00  0.63  0.00  0.00  0.00  0.00  0.00
  YS02001619YS02001622    1.00   0.22  0.00  0.00  0.78  0.00  0.00  0.00  0.46  0.00
  YS02001622YS02001625    1.00   0.23  0.00  0.00  0.77  0.00  0.00  0.00  0.29  0.00
  YS02001625YS02001629    1.00   0.23  0.27  0.00  0.06  0.00  0.44  0.00  0.00  0.00
  YS02163301YS02001633    1.00   0.00  0.34  0.00  0.66  0.00  0.00  0.00  0.00  0.00
  YS02163601YS02164001    1.00   0.00  0.17  0.00  0.83  0.00  0.00  0.00  0.00  0.00
  YS02164001YS02001641    1.00   0.04  0.13  0.00  0.83  0.00  0.00  0.00  0.07  0.00
  YS02001641YS02001644    1.00   0.00  0.03  0.00  0.97  0.00  0.00  0.00  0.00  0.00
  YS02001647YS02001649    1.00   0.01  0.43  0.00  0.56  0.00  0.00  0.00  0.03  0.00
  YS02006553YS02006556    1.00   0.07  0.00  0.00  0.93  0.00  0.00  0.00  0.03  0.00
  YS02006556YS02006558    1.00   0.00  0.02  0.00  0.98  0.00  0.00  0.00  0.00  0.00
  YSB6556YSB1171          1.00   0.14  0.07  0.00  0.79  0.00  0.00  0.00  0.00  0.00
  YS02001907YS02006553    1.00   0.01  0.11  0.00  0.88  0.00  0.00  0.00  0.00  0.00
  YS02006558YS02006561    1.00   0.40  0.00  0.00  0.00  0.59  0.00  0.00  0.00  0.00
  YS02001633YS02163601    1.00   0.00  0.04  0.00  0.96  0.00  0.00  0.00  0.21  0.00
  YS02001644YS02001647    1.00   0.00  0.44  0.00  0.56  0.00  0.00  0.00  0.00  0.00
  YS02001745YS02001748    1.00   0.00  0.00  0.00  0.00  0.00  0.00  1.00  0.00  0.00
  YS02001748YS02001751    1.00   0.00  0.00  0.00  0.70  0.30  0.00  0.00  0.62  0.00
  YS02001751YS02001754    1.00   0.00  0.00  0.00  0.48  0.01  0.00  0.51  0.37  0.00
  YS02001754YS02001757    1.00   0.00  0.00  0.00  0.97  0.03  0.00  0.00  0.40  0.00
  YS02001882YS02001884    1.00   0.32  0.03  0.00  0.66  0.00  0.00  0.00  0.00  0.00
  YS02001884YS02001887    1.00   0.15  0.05  0.00  0.80  0.00  0.00  0.00  0.00  0.00
  YS02001890YS02001895    1.00   0.02  0.34  0.00  0.64  0.00  0.00  0.00  0.00  0.00
  YS02001895YS02001898    1.00   0.36  0.01  0.00  0.59  0.00  0.03  0.00  0.00  0.00
  YS02001898YS02001901    1.00   0.31  0.06  0.00  0.62  0.00  0.00  0.00  0.01  0.00
  YS02001901YS02001904    1.00   0.31  0.00  0.00  0.69  0.00  0.00  0.00  0.01  0.00
  YS02001904YS02001907    1.00   0.01  0.30  0.00  0.69  0.00  0.00  0.00  0.00  0.00
  YS02001887YS02001890    1.00   0.00  0.01  0.00  0.87  0.00  0.12  0.00  0.00  0.00
  YS02001652YS02001649    1.00   0.00  0.00  0.00  1.00  0.00  0.00  0.00  0.39  0.00
  YS02001655YS02001652    1.00   0.00  0.00  0.00  0.51  0.01  0.00  0.48  0.34  0.00
  YS02001658YS02001655    1.00   0.00  0.31  0.00  0.23  0.46  0.00  0.00  0.75  0.00
  YS02001661YS02001658    1.00   0.31  0.00  0.00  0.00  0.69  0.00  0.00  0.73  0.00
  YS02001664YS02001661    1.00   0.22  0.00  0.00  0.78  0.00  0.00  0.00  0.86  0.00
  YSB1154YSB6556          1.00   0.21  0.00  0.00  0.79  0.00  0.00  0.00  0.02  0.00
  YSB1174YSB1171          1.00   0.15  0.04  0.00  0.82  0.00  0.00  0.00  0.00  0.00
  YSB1171HS02004479       1.00   0.14  0.00  0.00  0.85  0.00  0.00  0.01  0.14  0.00
  HS02004881HS02006253    1.00   0.15  0.00  0.00  0.00  0.00  0.00  0.85  0.00  0.00
  YS02001793JiankangQianchi    1.00   0.00  0.01  0.00  0.11  0.88  0.00  0.00  0.02  0.00
  YS02001757CaochengTiaoxuchi    1.00   0.00  1.00  0.00  0.00  0.00  0.00  0.00  0.00  0.00
  WSF200WS02003060        1.00   0.00  0.21  0.00  0.79  0.00  0.00  0.00  0.96  0.00
  1                       1.00   0.00  0.00  0.00  0.00  1.00  0.00  0.00  0.49  0.00
  2                       1.00   1.00  0.00  0.00  0.00  0.00  0.00  0.00  0.00  0.00
  3                       1.00   0.88  0.00  0.00  0.00  0.12  0.00  0.00  0.98  0.00
  4                       1.00   1.00  0.00  0.00  0.00  0.00  0.00  0.00  0.00  0.00
  
  
  *************************
  Conduit Surcharge Summary
  *************************
  
  ----------------------------------------------------------------------------
                                                           Hours        Hours 
                         --------- Hours Full --------   Above Full   Capacity
  Conduit                Both Ends  Upstream  Dnstream   Normal Flow   Limited
  ----------------------------------------------------------------------------
  WS02006256WS02006235        0.12      0.12      7.21      0.16         0.01
  WS02006235WS02006234        0.01      0.01      0.01      0.13         0.01
  WS02006231WS02006230        0.01      0.01      0.01      0.15         0.01
  WS02006230WS02006229        0.01      0.01      0.01      0.24         0.01
  YS02001793JiankangQianchi        0.01      0.01      0.09      0.01         0.01
  
  
  ***************
  Pumping Summary
  ***************
  
  ---------------------------------------------------------------------------------------------------------
                                                  Min       Avg       Max     Total     Power    % Time Off
                        Percent   Number of      Flow      Flow      Flow    Volume     Usage    Pump Curve
  Pump                 Utilized   Start-Ups       LPS       LPS       LPS  10^6 ltr     Kw-hr    Low   High
  ---------------------------------------------------------------------------------------------------------
  CC-Pump-1                0.00           0      0.00      0.00      0.00     0.000      0.00    0.0    0.0
  CC-Pump-2                0.00           0      0.00      0.00      0.00     0.000      0.00    0.0    0.0
  JK-Pump-1               97.86           1      0.00      7.77     20.51     0.214      3.80    0.0    0.0
  JK-Pump-2               76.61           7      0.00     51.26    300.00     0.347      5.79    0.0    0.0
  XR-Pump-1               78.72           7      0.00     66.90     95.00     1.397     25.41    0.0    0.0
  XR-Pump-2               89.36           6      0.00     62.66     95.00     1.482     27.08    0.0    0.0
  XR-Pump-3               93.62           2      0.00     72.60     95.00     1.853     33.83    0.0    0.0
  XR-Pump-4               87.23           4      0.00     72.69     95.00     1.710     32.17    0.0    0.0
  

  Analysis begun on:  Fri Dec 24 12:30:38 2021
  Analysis ended on:  Fri Dec 24 12:30:38 2021
  Total elapsed time: < 1 sec