
  EPA STORM WATER MANAGEMENT MODEL - VERSION 5.1 (Build 5.3.0.dev0)
  --------------------------------------------------------------

  WARNING 04: minimum elevation drop used for Conduit WS02004404WS02004405
  WARNING 03: negative offset ignored for Link YS02001904YS02001907
  
  *********************************************************
  NOTE: The summary statistics displayed in this report are
  based on results found at every computational time step,  
  not just on results from each reporting time step.
  *********************************************************
  
  ****************
  Analysis Options
  ****************
  Flow Units ............... LPS
  Process Models:
    Rainfall/Runoff ........ YES
    RDII ................... NO
    Snowmelt ............... NO
    Groundwater ............ NO
    Flow Routing ........... YES
    Ponding Allowed ........ NO
    Water Quality .......... NO
  Infiltration Method ...... HORTON
  Flow Routing Method ...... DYNWAVE
  Surcharge Method ......... EXTRAN
  Starting Date ............ 08/28/2015 08:00:00
  Ending Date .............. 08/28/2015 15:50:00
  Antecedent Dry Days ...... 8.0
  Report Time Step ......... 00:01:00
  Wet Time Step ............ 00:01:00
  Dry Time Step ............ 00:01:00
  Routing Time Step ........ 5.00 sec
  Variable Time Step ....... YES
  Maximum Trials ........... 8
  Number of Threads ........ 4
  Head Tolerance ........... 0.001500 m
  
  
  **************************        Volume         Depth
  Runoff Quantity Continuity     hectare-m            mm
  **************************     ---------       -------
  Total Precipitation ......         1.182         2.587
  Evaporation Loss .........         0.000         0.000
  Infiltration Loss ........         0.283         0.619
  Surface Runoff ...........         0.229         0.501
  Final Storage ............         0.670         1.467
  Continuity Error (%) .....        -0.012
  
  
  **************************        Volume        Volume
  Flow Routing Continuity        hectare-m      10^6 ltr
  **************************     ---------     ---------
  Dry Weather Inflow .......         0.616         6.165
  Wet Weather Inflow .......         0.229         2.287
  Groundwater Inflow .......         0.000         0.000
  RDII Inflow ..............         0.000         0.000
  External Inflow ..........         0.102         1.024
  External Outflow .........         1.057        10.569
  Flooding Loss ............         0.000         0.000
  Evaporation Loss .........         0.000         0.000
  Exfiltration Loss ........         0.000         0.000
  Initial Stored Volume ....         0.076         0.761
  Final Stored Volume ......         0.114         1.139
  Continuity Error (%) .....       -14.375
  
  
  *************************
  Highest Continuity Errors
  *************************
  Node JK-storage (-69.59%)
  Node HS02004842 (54.87%)
  Node YS02001884 (45.70%)
  Node YS02001774 (27.96%)
  Node YSB1171 (20.36%)
  
  
  ***************************
  Time-Step Critical Elements
  ***************************
  Link WS02006252WS02006251 (81.72%)
  Link WS02006280WS02006229 (6.08%)
  Link 3 (3.64%)
  Link YS02001793JiankangQianchi (2.08%)
  Link WS02006238WS02006235 (1.13%)
  
  
  ********************************
  Highest Flow Instability Indexes
  ********************************
  Link WS02006113WS02006111 (60)
  Link WS02006111WS02006112 (12)
  Link YS02001754YS02001757 (4)
  Link YS02001767YS02001765 (3)
  Link YS02001762YS02001759 (3)
  
  
  *************************
  Routing Time Step Summary
  *************************
  Minimum Time Step           :     0.04 sec
  Average Time Step           :     1.41 sec
  Maximum Time Step           :     5.00 sec
  Percent in Steady State     :    -0.00
  Average Iterations per Step :     2.01
  Percent Not Converging      :     0.02
  
  
  ***************************
  Subcatchment Runoff Summary
  ***************************
  
  ------------------------------------------------------------------------------------------------------------------------------
                            Total      Total      Total      Total     Imperv       Perv      Total       Total     Peak  Runoff
                           Precip      Runon       Evap      Infil     Runoff     Runoff     Runoff      Runoff   Runoff   Coeff
  Subcatchment                 mm         mm         mm         mm         mm         mm         mm    10^6 ltr      LPS
  ------------------------------------------------------------------------------------------------------------------------------
  sub0                       2.59       0.00       0.00       0.18       1.14       0.00       1.14        0.00     0.21   0.441
  sub1                       2.59       0.00       0.00       0.28       1.05       0.00       1.05        0.01     1.19   0.407
  sub2                       2.59       0.00       0.00       0.96       0.73       0.00       0.73        0.01     1.07   0.283
  sub3                       2.59       0.00       0.00       0.96       0.71       0.00       0.71        0.02     2.23   0.273
  sub4                       2.59       0.00       0.00       0.28       0.96       0.00       0.96        0.02     2.53   0.370
  sub5                       2.59       0.00       0.00       0.18       1.10       0.00       1.10        0.01     2.11   0.425
  sub7                       2.59       0.00       0.00       0.23       1.10       0.00       1.10        0.00     0.72   0.426
  sub8                       2.59       0.00       0.00       0.23       1.09       0.00       1.09        0.01     1.29   0.423
  sub9                       2.59       0.00       0.00       0.23       1.09       0.00       1.09        0.01     0.96   0.422
  sub10                      2.59       0.00       0.00       0.21       1.09       0.00       1.09        0.01     2.09   0.423
  sub11                      2.59       0.00       0.00       0.21       1.11       0.00       1.11        0.01     2.41   0.428
  sub12                      2.59       0.00       0.00       0.34       1.06       0.00       1.06        0.01     1.98   0.411
  sub14                      2.59       0.00       0.00       0.23       1.09       0.00       1.09        0.01     1.87   0.421
  sub15                      2.59       0.00       0.00       0.78       0.84       0.00       0.84        0.01     2.55   0.323
  sub16                      2.59       0.00       0.00       0.85       0.82       0.00       0.82        0.01     1.76   0.315
  sub17                      2.59       0.00       0.00       0.83       0.83       0.00       0.83        0.01     1.43   0.319
  sub22                      2.59       0.00       0.00       1.11       0.69       0.00       0.69        0.04     8.23   0.266
  sub23                      2.59       0.00       0.00       0.96       0.76       0.00       0.76        0.04     6.98   0.294
  sub60                      2.59       0.00       0.00       0.31       0.53       0.00       0.53        0.16    12.08   0.203
  sub61                      2.59       0.00       0.00       0.44       0.61       0.00       0.61        0.19    15.85   0.234
  sub62                      2.59       0.00       0.00       0.21       0.64       0.00       0.64        0.20    16.01   0.246
  sub63                      2.59       0.00       0.00       0.75       0.56       0.00       0.56        0.17    14.99   0.215
  sub64                      2.59       0.00       0.00       0.39       0.50       0.00       0.50        0.15    11.44   0.193
  sub65                      2.59       0.00       0.00       0.34       0.50       0.00       0.50        0.15    11.56   0.195
  sub66                      2.59       0.00       0.00       0.75       0.45       0.00       0.45        0.14    10.65   0.173
  sub67                      2.59       0.00       0.00       0.21       0.75       0.00       0.75        0.23    21.20   0.289
  sub68                      2.59       0.00       0.00       0.36       0.66       0.00       0.66        0.20    17.68   0.254
  sub69                      2.59       0.00       0.00       0.39       0.77       0.00       0.77        0.18    17.91   0.296
  sub70                      2.59       0.78       0.00       1.15       0.76       0.00       0.76        0.17    11.39   0.225
  sub71                      2.59       0.00       0.00       0.21       0.59       0.00       0.59        0.14    11.00   0.229
  sub72                      2.59       0.00       0.00       0.18       0.36       0.00       0.36        0.07     4.77   0.140
  sub73                      2.59       0.74       0.00       1.13       0.68       0.00       0.68        0.16     9.95   0.206
  sub74                      2.59       0.00       0.00       1.94       0.24       0.00       0.24        0.09     9.99   0.092
  
  
  ******************
  Node Depth Summary
  ******************
  
  ---------------------------------------------------------------------------------
                                 Average  Maximum  Maximum  Time of Max    Reported
                                   Depth    Depth      HGL   Occurrence   Max Depth
  Node                 Type       Meters   Meters   Meters  days hr:min      Meters
  ---------------------------------------------------------------------------------
  WS02001211           JUNCTION     0.65     0.77     5.60     0  05:30        0.77
  WS02001212           JUNCTION     0.37     0.47     5.53     0  05:30        0.47
  WS02001213           JUNCTION     0.58     0.69     5.45     0  05:30        0.69
  WS02003069           JUNCTION     0.37     0.45     5.04     0  04:33        0.45
  WS02003072           JUNCTION     0.44     0.52     4.89     0  04:34        0.52
  WS02003073           JUNCTION     0.26     0.31     4.38     0  04:35        0.31
  WS02003060           JUNCTION     0.33     0.40     5.34     0  04:33        0.40
  WS02003066           JUNCTION     0.17     0.23     5.78     0  03:47        0.23
  WS02003059           JUNCTION     0.64     0.74     5.42     0  05:30        0.74
  WS02003067           JUNCTION     0.45     0.58     5.90     0  03:47        0.58
  WS02004401           JUNCTION     0.51     0.65     6.65     0  03:43        0.65
  WS02004402           JUNCTION     0.55     0.69     6.65     0  03:43        0.69
  WS02004403           JUNCTION     0.57     0.71     6.64     0  03:43        0.71
  WS02004404           JUNCTION     0.65     0.79     6.64     0  03:43        0.79
  WS02004406           JUNCTION     0.66     0.80     6.63     0  03:43        0.80
  WS02004409           JUNCTION     0.33     0.46     6.23     0  03:45        0.46
  WS02004410           JUNCTION     0.35     0.49     6.21     0  03:46        0.49
  WS02004411           JUNCTION     0.38     0.51     6.19     0  03:46        0.51
  WS02004412           JUNCTION     0.40     0.53     6.17     0  03:46        0.53
  WS02004413           JUNCTION     0.56     0.70     6.17     0  03:47        0.70
  WS02004405           JUNCTION     0.65     0.79     6.64     0  03:43        0.79
  WS02006109           JUNCTION     0.57     0.73     7.35     0  03:39        0.73
  WS02006110           JUNCTION     0.59     0.74     7.32     0  03:39        0.74
  WS02006111           JUNCTION     0.15     0.22     6.92     0  03:39        0.22
  WS02006112           JUNCTION     0.66     0.82     6.70     0  03:42        0.82
  WS02006113           JUNCTION     0.23     0.33     7.22     0  03:40        0.33
  WS02006115           JUNCTION     0.40     0.54     6.67     0  03:42        0.54
  WS02006116           JUNCTION     0.48     0.62     6.66     0  03:43        0.62
  WS02006230           JUNCTION     0.48     0.67     7.42     0  03:39        0.67
  WS02006231           JUNCTION     0.32     0.46     7.58     0  03:38        0.46
  WS02006232           JUNCTION     0.44     0.60     7.64     0  03:38        0.60
  WS02006234           JUNCTION     0.33     0.51     7.67     0  03:37        0.51
  WS02006235           JUNCTION     0.36     0.54     7.71     0  03:37        0.54
  WS02006238           JUNCTION     0.38     0.57     7.71     0  03:37        0.57
  WS02006240           JUNCTION     0.26     0.45     7.74     0  03:37        0.45
  WS02006242           JUNCTION     0.31     0.50     7.77     0  03:36        0.50
  WS02006243           JUNCTION     0.20     0.37     7.79     0  03:36        0.37
  WS02006245           JUNCTION     0.21     0.38     7.86     0  03:28        0.38
  WS02006247           JUNCTION     0.23     0.42     7.92     0  03:27        0.41
  WS02006248           JUNCTION     0.19     0.37     7.96     0  03:27        0.36
  WS02006249           JUNCTION     0.23     0.42     8.02     0  03:27        0.42
  WS02006239           JUNCTION     0.33     0.51     7.72     0  03:37        0.51
  WS02006251           JUNCTION     0.21     0.43     8.10     0  03:27        0.43
  WS02006252           JUNCTION     0.20     0.49     8.73     0  03:26        0.49
  WS02006253           JUNCTION     0.24     0.47     8.11     0  03:27        0.46
  WS02006256           JUNCTION     0.71     1.10     8.04     0  00:25        1.10
  WS02004138           JUNCTION     0.15     0.19     7.44     0  05:22        0.19
  WS02004407           JUNCTION     0.15     0.22     6.53     0  03:44        0.22
  WS02006228           JUNCTION     0.55     0.72     7.37     0  03:39        0.72
  WS02006229           JUNCTION     0.51     0.69     7.38     0  03:39        0.69
  WS02006280           JUNCTION     0.04     0.07     8.34     0  02:45        0.07
  WS02006284           JUNCTION     0.32     0.37     8.77     0  02:45        0.37
  WS02006287           JUNCTION     0.05     0.10     9.05     0  02:45        0.10
  WSF200               JUNCTION     0.14     0.21     5.44     0  03:47        0.21
  HS02004901           JUNCTION     0.09     0.13     9.96     0  02:45        0.13
  HS02004881           JUNCTION     0.00     0.01     9.04     0  02:42        0.01
  HS02004876           JUNCTION     0.02     0.05     9.08     0  02:43        0.05
  HS02004870           JUNCTION     0.00     0.01     9.30     0  02:40        0.01
  HS02004862           JUNCTION     0.01     0.01     9.40     0  02:43        0.01
  HS02004856           JUNCTION     0.07     0.08     9.51     0  02:41        0.08
  HS02004852           JUNCTION     0.00     0.01     9.52     0  02:44        0.01
  HS02004848           JUNCTION     0.00     0.01     9.61     0  02:38        0.01
  HS02004842           JUNCTION     0.32     0.34     9.61     0  02:39        0.34
  HS02004837           JUNCTION     0.02     0.03     9.61     0  02:38        0.03
  HS02004830           JUNCTION     0.03     0.04     9.51     0  02:39        0.04
  HS02004824           JUNCTION     0.01     0.02     9.42     0  02:42        0.02
  HS02004817           JUNCTION     0.40     0.44     9.29     0  02:45        0.44
  HS02004807           JUNCTION     0.09     0.12     9.29     0  02:45        0.12
  HS02004802           JUNCTION     0.13     0.16     9.29     0  02:45        0.16
  HS02004799           JUNCTION     0.07     0.12     9.33     0  02:43        0.12
  HS02004792           JUNCTION     0.01     0.03     9.56     0  02:42        0.03
  HS02004788           JUNCTION     0.01     0.02     9.92     0  02:45        0.02
  HS02004785           JUNCTION     0.02     0.05     9.95     0  02:45        0.05
  HS02004777           JUNCTION     0.11     0.16     9.96     0  02:45        0.16
  HS02004770           JUNCTION     0.08     0.12     9.96     0  02:44        0.12
  HS02004480           JUNCTION     0.04     0.09     9.33     0  02:44        0.09
  HS02004479           JUNCTION     0.08     0.12     9.33     0  02:43        0.12
  HS02004478           JUNCTION     0.04     0.06     9.29     0  02:44        0.06
  YS02001745           JUNCTION     0.04     0.05     7.57     0  03:01        0.05
  YS02001748           JUNCTION     0.04     0.06     7.13     0  03:01        0.06
  YS02001751           JUNCTION     0.12     0.16     7.04     0  03:22        0.16
  YS02001754           JUNCTION     0.35     0.43     7.04     0  03:21        0.43
  YS02001762           JUNCTION     0.54     0.64     7.04     0  03:28        0.64
  YS02001765           JUNCTION     0.49     0.59     7.04     0  03:30        0.59
  YS02001767           JUNCTION     0.46     0.55     7.04     0  03:30        0.55
  YS02001770           JUNCTION     0.45     0.54     7.04     0  03:20        0.54
  YS02001774           JUNCTION     0.52     0.62     7.04     0  03:29        0.62
  YS02001779           JUNCTION     0.28     0.35     7.04     0  03:21        0.35
  YS02001882           JUNCTION     0.15     0.21     6.92     0  03:05        0.21
  YS02001884           JUNCTION     0.24     0.31     6.92     0  03:04        0.31
  YS02001759           JUNCTION     0.57     0.67     7.04     0  03:29        0.67
  YS02001887           JUNCTION     0.32     0.39     6.92     0  03:04        0.39
  YS02001890           JUNCTION     0.35     0.42     6.92     0  03:05        0.42
  YS02001898           JUNCTION     0.13     0.18     6.91     0  03:05        0.18
  YS02001901           JUNCTION     0.24     0.30     6.91     0  03:06        0.30
  YS02001904           JUNCTION     0.22     0.28     6.91     0  03:06        0.28
  YS02001907           JUNCTION     0.54     0.62     6.91     0  03:05        0.62
  YS02001910           JUNCTION     0.33     0.40     6.91     0  03:05        0.40
  YS02001915           JUNCTION     0.14     0.19     6.91     0  03:06        0.19
  YS02001918           JUNCTION     0.04     0.05     7.11     0  03:07        0.05
  YS02001619           JUNCTION     0.08     0.12     7.05     0  03:25        0.12
  YS02001629           JUNCTION     0.40     0.49     7.04     0  03:25        0.49
  YS02001641           JUNCTION     0.50     0.60     7.04     0  03:27        0.60
  YS02001644           JUNCTION     0.51     0.61     7.04     0  03:27        0.61
  YS02001652           JUNCTION     0.36     0.44     7.04     0  03:29        0.44
  YS02001655           JUNCTION     0.14     0.19     7.04     0  03:28        0.19
  YS02001920           JUNCTION     0.12     0.13     7.13     0  03:06        0.13
  YS02001923           JUNCTION     0.03     0.03     7.29     0  03:04        0.03
  YS02001926           JUNCTION     0.07     0.09     7.53     0  03:04        0.09
  YS02001929           JUNCTION     0.03     0.04     7.73     0  03:01        0.04
  YS02001658           JUNCTION     0.04     0.06     7.20     0  03:01        0.06
  YS02001661           JUNCTION     0.10     0.12     7.53     0  03:01        0.12
  YS02001664           JUNCTION     0.03     0.05     7.97     0  03:01        0.05
  YS02001622           JUNCTION     0.10     0.14     7.04     0  03:24        0.14
  YS02001633           JUNCTION     0.49     0.59     7.04     0  03:26        0.59
  YS02001649           JUNCTION     0.54     0.65     7.04     0  03:29        0.65
  YS02001757           JUNCTION     0.67     0.78     7.04     0  03:28        0.78
  YS02001895           JUNCTION     0.12     0.17     6.92     0  03:05        0.17
  YS02001625           JUNCTION     0.36     0.44     7.04     0  03:26        0.44
  YS02163301           JUNCTION     0.43     0.52     7.04     0  03:25        0.52
  YS02163601           JUNCTION     0.54     0.64     7.04     0  03:26        0.64
  YS02164001           JUNCTION     0.48     0.58     7.04     0  03:25        0.58
  YS02001647           JUNCTION     0.35     0.43     7.04     0  03:23        0.43
  YSB1154              JUNCTION     0.21     0.27     9.33     0  02:44        0.27
  YSB6556              JUNCTION     0.11     0.16     9.33     0  02:44        0.16
  YSB1174              JUNCTION     0.16     0.22     9.33     0  02:44        0.22
  YSB1171              JUNCTION     0.36     0.42     9.33     0  02:43        0.42
  YS02006553           JUNCTION     0.55     0.63     6.91     0  03:06        0.63
  YS02006561           JUNCTION     0.06     0.09     6.75     0  03:06        0.09
  YS02006556           JUNCTION     0.52     0.60     6.91     0  03:06        0.60
  YS02006558           JUNCTION     0.56     0.64     6.91     0  03:06        0.64
  YS02001783           JUNCTION     0.10     0.15     6.30     0  03:06        0.15
  YS02001784           JUNCTION     0.14     0.19     6.26     0  03:07        0.19
  YS02001786           JUNCTION     0.12     0.16     6.19     0  03:08        0.16
  YS02001788           JUNCTION     0.08     0.11     6.09     0  03:08        0.11
  YS02001790           JUNCTION     0.10     0.14     5.78     0  03:08        0.14
  YS02001791           JUNCTION     0.07     0.09     5.56     0  03:08        0.09
  YS02001793           JUNCTION     0.04     0.06     4.89     0  03:09        0.06
  WS02004139           JUNCTION     0.60     0.71     5.62     0  05:30        0.71
  WSC                  OUTFALL      0.26     0.31     0.98     0  04:35        0.31
  3                    OUTFALL      0.00     0.10     6.10     0  00:25        0.10
  4                    OUTFALL      0.00     0.00     7.00     0  00:00        0.00
  5                    OUTFALL      0.00     0.00     5.00     0  00:00        0.00
  JK-storage           STORAGE      0.08     3.00     3.80     0  00:10        3.00
  CC-storage           STORAGE      0.00     0.01     7.01     0  03:21        0.01
  XR-storage           STORAGE      1.69     5.10     3.10     0  00:20        5.10
  
  
  *******************
  Node Inflow Summary
  *******************
  
  -------------------------------------------------------------------------------------------------
                                  Maximum  Maximum                  Lateral       Total        Flow
                                  Lateral    Total  Time of Max      Inflow      Inflow     Balance
                                   Inflow   Inflow   Occurrence      Volume      Volume       Error
  Node                 Type           LPS      LPS  days hr:min    10^6 ltr    10^6 ltr     Percent
  -------------------------------------------------------------------------------------------------
  WS02001211           JUNCTION      7.35   387.53     0  05:30       0.207        6.91       0.439
  WS02001212           JUNCTION      0.00   387.37     0  05:30           0        6.88       0.267
  WS02001213           JUNCTION      0.00   387.31     0  05:30           0        6.86       0.232
  WS02003069           JUNCTION      0.32   610.77     0  04:33     0.00902        10.5       0.177
  WS02003072           JUNCTION      0.00   610.20     0  04:34           0        10.5       0.239
  WS02003073           JUNCTION      1.82   611.52     0  04:34      0.0514        10.5       0.257
  WS02003060           JUNCTION     16.53   610.57     0  04:32       0.466        10.5       0.173
  WS02003066           JUNCTION      0.00   277.51     0  03:47           0        3.25       0.079
  WS02003059           JUNCTION      0.00   387.32     0  05:31           0        6.85       0.456
  WS02003067           JUNCTION      0.00   277.52     0  03:47           0        3.26       0.189
  WS02004401           JUNCTION      0.00   293.51     0  03:42           0        3.41       0.434
  WS02004402           JUNCTION      0.00   291.31     0  03:42           0         3.4       0.425
  WS02004403           JUNCTION      0.00   289.93     0  03:42           0        3.38       0.401
  WS02004404           JUNCTION      0.16   289.07     0  03:42     0.00457        3.37       0.318
  WS02004406           JUNCTION      0.00   287.89     0  03:43           0        3.35       0.787
  WS02004409           JUNCTION      0.00   287.30     0  03:44           0        3.32       0.241
  WS02004410           JUNCTION      0.00   284.50     0  03:44           0        3.31       0.296
  WS02004411           JUNCTION      0.00   281.83     0  03:45           0         3.3       0.325
  WS02004412           JUNCTION      0.00   279.77     0  03:45           0        3.29       0.381
  WS02004413           JUNCTION      0.00   278.17     0  03:46           0        3.28       0.613
  WS02004405           JUNCTION      0.04   288.54     0  03:43     0.00107        3.36       0.479
  WS02006109           JUNCTION      1.23   303.13     0  03:39      0.0347        3.49       0.387
  WS02006110           JUNCTION      0.00   303.00     0  03:39           0        3.47       0.424
  WS02006111           JUNCTION      0.00   307.05     0  03:39           0        3.45       0.071
  WS02006112           JUNCTION      1.43   303.22     0  03:39     0.00708        3.46       0.652
  WS02006113           JUNCTION      0.00   302.93     0  03:39           0        3.46       0.145
  WS02006115           JUNCTION      0.00   299.98     0  03:41           0        3.43       0.362
  WS02006116           JUNCTION      0.00   296.21     0  03:41           0        3.42       0.315
  WS02006230           JUNCTION     10.28   280.44     0  03:38        0.29        3.09       0.232
  WS02006231           JUNCTION      0.00   270.25     0  03:38           0        2.81       0.241
  WS02006232           JUNCTION      0.00   270.31     0  03:37           0        2.82       0.364
  WS02006234           JUNCTION      0.00   270.53     0  03:37           0        2.82       0.099
  WS02006235           JUNCTION      0.00   270.65     0  03:37           0        2.86       0.218
  WS02006238           JUNCTION      0.00   186.18     0  03:29           0         1.5       0.236
  WS02006240           JUNCTION      0.00   203.24     0  03:29           0        1.47       0.223
  WS02006242           JUNCTION      0.00   215.69     0  03:28           0        1.46       0.302
  WS02006243           JUNCTION      0.00   223.16     0  03:28           0        1.46       0.033
  WS02006245           JUNCTION      0.00   227.42     0  03:27           0        1.46       0.338
  WS02006247           JUNCTION      0.00   233.39     0  03:27           0        1.46       0.182
  WS02006248           JUNCTION      0.00   237.31     0  03:27           0        1.46      -0.104
  WS02006249           JUNCTION      0.00   250.32     0  03:27           0        1.47       0.452
  WS02006239           JUNCTION      0.00   195.13     0  03:29           0        1.48       0.188
  WS02006251           JUNCTION      0.08   282.88     0  03:27     0.00217        1.49       0.153
  WS02006252           JUNCTION      0.00   282.83     0  03:27           0        1.43       0.005
  WS02006253           JUNCTION      0.21    24.78     0  03:25    0.000924      0.0652       1.725
  WS02006256           JUNCTION      0.00   300.00     0  00:20           0        1.46       0.121
  WS02004138           JUNCTION      0.00   380.00     0  05:20           0        6.73       0.058
  WS02004407           JUNCTION      0.00   287.46     0  03:43           0        3.32       0.116
  WS02006228           JUNCTION      0.00   302.06     0  03:38           0        3.46       0.279
  WS02006229           JUNCTION      0.00   302.21     0  03:38           0        3.47       0.232
  WS02006280           JUNCTION      0.00    41.27     0  02:45           0       0.386       0.020
  WS02006284           JUNCTION      0.10    41.28     0  02:45      0.0027       0.388       0.306
  WS02006287           JUNCTION      0.00    41.18     0  02:44           0       0.386       0.179
  WSF200               JUNCTION      0.00   277.48     0  03:47           0        3.25       0.064
  HS02004901           JUNCTION      1.76     1.76     0  02:30     0.00853     0.00868      25.316
  HS02004881           JUNCTION      0.72     6.02     0  02:42     0.00371      0.0384       0.196
  HS02004876           JUNCTION      1.19     5.37     0  02:39       0.007      0.0352       1.437
  HS02004870           JUNCTION      1.29     4.20     0  02:39     0.00698      0.0283       0.363
  HS02004862           JUNCTION      1.27     2.96     0  02:40      0.0125      0.0215       0.752
  HS02004856           JUNCTION      0.96     1.70     0  02:39     0.00525      0.0105      15.858
  HS02004852           JUNCTION      0.00     0.79     0  02:41           0     0.00526       0.777
  HS02004848           JUNCTION      2.23     2.23     0  02:41      0.0159      0.0159       0.232
  HS02004842           JUNCTION      0.00     4.48     0  00:03           0      0.0237     121.596
  HS02004837           JUNCTION      8.44     9.87     0  02:37       0.191       0.202       0.403
  HS02004830           JUNCTION      0.15    10.02     0  02:38     0.00423       0.192       0.644
  HS02004824           JUNCTION      2.58    12.59     0  02:42      0.0213       0.212       0.253
  HS02004817           JUNCTION      0.60    13.18     0  02:42      0.0169       0.229       7.852
  HS02004807           JUNCTION      2.41    15.45     0  02:41      0.0129       0.225       1.911
  HS02004802           JUNCTION      0.00    15.42     0  02:44           0       0.221       1.872
  HS02004799           JUNCTION      1.87    22.05     0  02:41      0.0104       0.162       1.391
  HS02004792           JUNCTION      8.51    20.25     0  02:41      0.0513       0.152       0.278
  HS02004788           JUNCTION      4.22    12.22     0  02:44      0.0615       0.102       0.388
  HS02004785           JUNCTION      0.15     8.17     0  02:42     0.00423      0.0424       1.114
  HS02004777           JUNCTION      0.03     8.18     0  02:37    0.000846      0.0426      13.790
  HS02004770           JUNCTION      6.98     8.49     0  02:34      0.0363      0.0432       7.719
  HS02004480           JUNCTION      0.00    25.80     0  02:42           0       0.181       0.321
  HS02004479           JUNCTION      0.00     3.78     0  02:45           0      0.0315       2.355
  HS02004478           JUNCTION      0.00    41.19     0  02:44           0       0.386       0.190
  YS02001745           JUNCTION     12.09    12.09     0  03:01       0.159       0.159       0.113
  YS02001748           JUNCTION      0.04    12.12     0  03:01     0.00127       0.161       0.060
  YS02001751           JUNCTION      0.01    22.33     0  06:40     0.00031       0.191       1.071
  YS02001754           JUNCTION      0.26    72.05     0  06:01     0.00733       0.335       2.577
  YS02001762           JUNCTION      0.00    23.65     0  07:21           0       0.214       6.451
  YS02001765           JUNCTION      0.00    33.70     0  06:36           0       0.205       7.057
  YS02001767           JUNCTION      0.54    27.09     0  06:32      0.0151       0.209       9.697
  YS02001770           JUNCTION     16.17    18.35     0  03:21         0.2       0.215       7.759
  YS02001774           JUNCTION      0.00    12.01     0  07:18           0      0.0498      38.809
  YS02001779           JUNCTION      0.01     9.29     0  07:13    0.000141      0.0224      26.836
  YS02001882           JUNCTION      0.00     1.02     0  02:07           0     0.00182     143.815
  YS02001884           JUNCTION      0.00     3.21     0  02:10           0     0.00776      84.146
  YS02001759           JUNCTION     15.89    42.06     0  06:37       0.188       0.374       4.299
  YS02001887           JUNCTION     21.65    21.65     0  03:01       0.244       0.246       2.378
  YS02001890           JUNCTION      0.00    21.23     0  03:00           0       0.233       2.801
  YS02001898           JUNCTION      0.00    21.02     0  03:04           0       0.225       0.590
  YS02001901           JUNCTION      0.00    21.05     0  03:04           0       0.225       1.875
  YS02001904           JUNCTION      0.00    20.97     0  03:05           0       0.225       1.758
  YS02001907           JUNCTION      0.00    39.34     0  03:07           0       0.506       4.071
  YS02001910           JUNCTION      0.00    18.55     0  03:04           0       0.292       2.975
  YS02001915           JUNCTION     11.02    18.58     0  03:01        0.14       0.294       1.001
  YS02001918           JUNCTION      0.00     7.69     0  03:06           0       0.155       0.340
  YS02001619           JUNCTION     10.65    10.65     0  03:01       0.137       0.137       0.384
  YS02001629           JUNCTION      0.00    14.43     0  03:18           0       0.128       4.454
  YS02001641           JUNCTION      0.00    33.92     0  03:18           0       0.251       5.092
  YS02001644           JUNCTION     11.47    43.66     0  03:18       0.153       0.385       3.994
  YS02001652           JUNCTION      0.00    24.19     0  06:32           0       0.186       4.725
  YS02001655           JUNCTION      0.15    15.12     0  03:01     0.00434       0.173       1.611
  YS02001920           JUNCTION      2.87     7.69     0  03:04      0.0809       0.156       0.847
  YS02001923           JUNCTION      0.04     4.82     0  03:04     0.00106      0.0752       0.164
  YS02001926           JUNCTION      0.05     4.81     0  03:01     0.00147      0.0751       1.263
  YS02001929           JUNCTION      4.77     4.77     0  03:01      0.0737      0.0737       0.147
  YS02001658           JUNCTION      0.00    14.98     0  03:01           0       0.167       0.081
  YS02001661           JUNCTION      0.00    14.99     0  03:01           0       0.168       0.348
  YS02001664           JUNCTION     14.99    14.99     0  03:01       0.168       0.168       0.057
  YS02001622           JUNCTION      0.00    10.96     0  03:17           0       0.137       1.799
  YS02001633           JUNCTION     11.76    29.02     0  03:17        0.16       0.276       6.838
  YS02001649           JUNCTION      0.00    59.27     0  06:39           0       0.523       4.527
  YS02001757           JUNCTION      0.00   125.97     0  05:33           0        1.08       6.691
  YS02001895           JUNCTION      0.00    21.06     0  03:03           0       0.227       0.956
  YS02001625           JUNCTION      0.00    12.71     0  03:17           0       0.137      10.895
  YS02163301           JUNCTION      0.00    16.95     0  03:18           0        0.13       9.861
  YS02163601           JUNCTION      0.11    31.17     0  03:17      0.0031       0.257       7.695
  YS02164001           JUNCTION      0.00    32.96     0  03:18           0       0.249       4.710
  YS02001647           JUNCTION      0.00    43.72     0  03:28           0        0.36       3.243
  YSB1154              JUNCTION      2.11     2.11     0  02:35      0.0125       0.014      11.521
  YSB6556              JUNCTION      0.00     2.24     0  01:37           0      0.0151       8.950
  YSB1174              JUNCTION      1.98     1.98     0  02:29     0.00928      0.0103      14.161
  YSB1171              JUNCTION      0.00     3.84     0  02:41           0       0.031      25.557
  YS02006553           JUNCTION      0.00    39.41     0  03:09           0       0.493       2.690
  YS02006561           JUNCTION      0.00    57.20     0  03:06           0       0.679       0.049
  YS02006556           JUNCTION      0.00    39.46     0  03:09           0       0.494       1.897
  YS02006558           JUNCTION     18.56    57.21     0  03:06       0.227       0.701       0.562
  YS02001783           JUNCTION      0.00    57.19     0  03:06           0       0.679       0.114
  YS02001784           JUNCTION      1.06    58.24     0  03:07      0.0299       0.708       0.193
  YS02001786           JUNCTION      0.06    58.28     0  03:07     0.00159       0.708       0.198
  YS02001788           JUNCTION      0.07    58.35     0  03:08       0.002       0.709       0.102
  YS02001790           JUNCTION      0.15    58.50     0  03:08     0.00437       0.713       0.135
  YS02001791           JUNCTION      0.00    58.50     0  03:08           0       0.712       0.063
  YS02001793           JUNCTION      0.00    58.50     0  03:09           0       0.711       0.032
  WS02004139           JUNCTION      0.32   380.32     0  05:22     0.00905        6.73       0.471
  WSC                  OUTFALL       0.00   610.68     0  04:35           0        10.5       0.000
  3                    OUTFALL       0.00   159.15     0  00:25           0      0.0734       0.000
  4                    OUTFALL       0.00     0.00     0  00:00           0           0       0.000 ltr
  5                    OUTFALL       0.00     0.00     0  00:00           0           0       0.000 ltr
  JK-storage           STORAGE       0.00    58.50     0  03:09           0       0.862     -41.036
  CC-storage           STORAGE       0.00    89.84     0  03:29           0        0.87     -39.083
  XR-storage           STORAGE     219.94   219.94     0  03:01         5.9         6.5      -4.362
  
  
  **********************
  Node Surcharge Summary
  **********************
  
  Surcharging occurs when water rises above the top of the highest conduit.
  ---------------------------------------------------------------------
                                               Max. Height   Min. Depth
                                   Hours       Above Crown    Below Rim
  Node                 Type      Surcharged         Meters       Meters
  ---------------------------------------------------------------------
  WS02006252           JUNCTION        0.02          0.091        1.009
  
  
  *********************
  Node Flooding Summary
  *********************
  
  No nodes were flooded.
  
  
  **********************
  Storage Volume Summary
  **********************
  
  --------------------------------------------------------------------------------------------------
                         Average     Avg  Evap Exfil       Maximum     Max    Time of Max    Maximum
                          Volume    Pcnt  Pcnt  Pcnt        Volume    Pcnt     Occurrence    Outflow
  Storage Unit           1000 m3    Full  Loss  Loss       1000 m3    Full    days hr:min        LPS
  --------------------------------------------------------------------------------------------------
  JK-storage               0.004       1     0     0         0.151      52       0  00:10     300.00
  CC-storage               0.001       0     0     0         0.031       0       0  03:21     282.83
  XR-storage               0.203      22     0     0         0.612      66       0  00:20     380.00
  
  
  ***********************
  Outfall Loading Summary
  ***********************
  
  -----------------------------------------------------------
                         Flow       Avg       Max       Total
                         Freq      Flow      Flow      Volume
  Outfall Node           Pcnt       LPS       LPS    10^6 ltr
  -----------------------------------------------------------
  WSC                  100.00    421.70    610.68      10.495
  3                      6.83     69.97    159.15       0.073
  4                      0.00      0.00      0.00       0.000
  5                      0.00      0.00      0.00       0.000
  -----------------------------------------------------------
  System                26.71    491.67    610.68      10.569
  
  
  ********************
  Link Flow Summary
  ********************
  
  -----------------------------------------------------------------------------
                                 Maximum  Time of Max   Maximum    Max/    Max/
                                  |Flow|   Occurrence   |Veloc|    Full    Full
  Link                 Type          LPS  days hr:min     m/sec    Flow   Depth
  -----------------------------------------------------------------------------
  WS02003066WSF200     CONDUIT    277.48     0  03:47      2.38    0.05    0.16
  WS02006287WS02006284 CONDUIT     41.18     0  02:45      0.89    0.02    0.11
  WS02006284WS02006280 CONDUIT     41.27     0  02:45      1.16    0.02    0.09
  WS02006280WS02006229 CONDUIT     41.27     0  02:46      1.84    0.01    0.07
  WS02006229WS02006228 CONDUIT    302.06     0  03:38      0.66    1.00    0.86
  WS02006256WS02006235 CONDUIT    149.95     0  00:15      2.14    1.59    1.00
  WS02006253WS02006251 CONDUIT     57.92     0  03:27      0.32    0.17    0.64
  WS02006252WS02006251 CONDUIT    282.80     0  03:27      2.44    1.04    0.96
  WS02006251WS02006249 CONDUIT    250.32     0  03:27      1.02    0.72    0.61
  WS02006249WS02006248 CONDUIT    237.31     0  03:27      1.09    1.30    0.55
  WS02006248WS02006247 CONDUIT    233.39     0  03:27      1.07    0.51    0.55
  WS02006247WS02006245 CONDUIT    227.42     0  03:27      1.03    1.80    0.56
  WS02006245WS02006243 CONDUIT    223.16     0  03:28      1.13    0.66    0.52
  WS02006243WS02006242 CONDUIT    215.69     0  03:28      0.97    0.46    0.61
  WS02006242WS02006240 CONDUIT    203.24     0  03:29      0.84    0.81    0.67
  WS02006240WS02006239 CONDUIT    195.13     0  03:29      0.87    0.61    0.66
  WS02006239WS02006238 CONDUIT    186.18     0  03:29      0.73    0.60    0.76
  WS02006238WS02006235 CONDUIT    180.66     0  03:29      0.75    0.40    0.79
  WS02006235WS02006234 CONDUIT    270.53     0  03:37      0.96    2.85    0.73
  WS02006234WS02006232 CONDUIT    270.31     0  03:37      0.83    0.55    0.79
  WS02006232WS02006231 CONDUIT    270.25     0  03:38      0.87    0.57    0.75
  WS02006231WS02006230 CONDUIT    270.16     0  03:38      1.23    4.10    0.56
  WS02006230WS02006229 CONDUIT    280.37     0  03:38      0.79    6.24    0.94
  WS02006228WS02006109 CONDUIT    301.90     0  03:39      0.64    1.32    0.90
  WS02006116WS02004401 CONDUIT    293.51     0  03:42      0.80    0.40    0.64
  WS02006115WS02006116 CONDUIT    296.21     0  03:41      0.92    0.38    0.55
  WS02006113WS02006111 CONDUIT    307.05     0  03:39      2.03    0.37    0.34
  WS02006112WS02006115 CONDUIT    299.98     0  03:41      0.55    0.18    0.67
  WS02006111WS02006112 CONDUIT    302.96     0  03:39      1.27    0.14    0.63
  WS02006110WS02006113 CONDUIT    302.93     0  03:39      0.85    0.28    0.67
  WS02006109WS02006110 CONDUIT    303.00     0  03:39      0.67    0.58    0.85
  WS02004411WS02004412 CONDUIT    279.77     0  03:45      0.69    0.40    0.52
  WS02004401WS02004402 CONDUIT    291.31     0  03:42      0.83    0.35    0.67
  WS02004413WS02003067 CONDUIT    277.52     0  03:47      0.78    0.12    0.46
  WS02004412WS02004413 CONDUIT    278.17     0  03:46      0.55    0.19    0.61
  WS02004410WS02004411 CONDUIT    281.83     0  03:45      0.73    0.38    0.50
  WS02004409WS02004410 CONDUIT    284.50     0  03:44      0.78    0.37    0.48
  WS02004407WS02004409 CONDUIT    287.30     0  03:44      1.24    0.10    0.34
  WS02004406WS02004407 CONDUIT    287.46     0  03:43      0.72    0.13    0.51
  WS02004405WS02004406 CONDUIT    287.89     0  03:43      0.77    0.57    0.79
  WS02004404WS02004405 CONDUIT    288.50     0  03:43      0.96    2.83    0.79
  WS02004403WS02004404 CONDUIT    288.91     0  03:42      0.85    0.21    0.75
  WS02004402WS02004403 CONDUIT    289.93     0  03:42      0.85    0.42    0.70
  WS02004139WS02001211 CONDUIT    380.18     0  05:30      0.69    0.48    0.57
  WS02004138WS02004139 CONDUIT    380.00     0  05:22      2.95    0.08    0.43
  WS02003067WS02003066 CONDUIT    277.51     0  03:47      0.83    0.09    0.34
  WS02001213WS02003059 CONDUIT    387.32     0  05:31      0.67    0.64    0.70
  WS02001212WS02001213 CONDUIT    387.31     0  05:30      1.30    0.60    0.42
  WS02001211WS02001212 CONDUIT    387.37     0  05:30      0.77    0.30    0.62
  WS02003072WS02003073 CONDUIT    609.70     0  04:34      1.48    1.32    0.39
  WS02003069WS02003072 CONDUIT    610.20     0  04:34      1.41    0.29    0.41
  WS02003060WS02003069 CONDUIT    610.45     0  04:33      1.68    0.24    0.36
  WS02003059WS02003060 CONDUIT    387.54     0  05:31      0.92    0.25    0.57
  HS02004901HS02004770 CONDUIT      1.59     0  02:40      0.02    0.01    0.18
  HS02004876HS02004881 CONDUIT      5.34     0  02:43      0.20    0.06    0.04
  HS02004870HS02004876 CONDUIT      4.20     0  02:40      0.14    0.00    0.04
  HS02004842HS02004848 CONDUIT      1.46     0  02:47      0.01    0.00    0.25
  HS02004837HS02004842 CONDUIT      4.48     0  00:03      0.42    0.00    0.26
  HS02004830HS02004837 CONDUIT      9.87     0  02:38      0.30    0.01    0.05
  HS02004824HS02004830 CONDUIT     10.02     0  02:39      0.35    0.01    0.04
  HS02004817HS02004824 CONDUIT     12.58     0  02:42      0.17    0.01    0.33
  HS02004770HS02004777 CONDUIT      8.15     0  02:37      0.06    0.01    0.20
  HS02004799HS02004480 CONDUIT     22.02     0  02:42      0.22    0.03    0.14
  HS02004792HS02004799 CONDUIT     20.24     0  02:42      0.26    0.01    0.11
  HS02004788HS02004792 CONDUIT     12.22     0  02:45      0.44    0.01    0.04
  HS02004785HS02004788 CONDUIT      8.13     0  02:45      0.21    0.06    0.05
  HS02004777HS02004785 CONDUIT      8.02     0  02:42      0.08    0.01    0.15
  HS02004480HS02004478 CONDUIT     25.77     0  02:44      0.44    0.11    0.08
  HS02004479HS02004480 CONDUIT      3.81     0  02:47      0.15    0.00    0.15
  HS02004862HS02004870 CONDUIT      2.95     0  02:42      0.22    0.00    0.02
  HS02004848HS02004852 CONDUIT      0.79     0  02:41      0.12    0.00    0.01
  HS02004856HS02004862 CONDUIT      1.70     0  02:42      0.14    0.00    0.02
  HS02004852HS02004856 CONDUIT      0.78     0  02:44      0.02    0.00    0.06
  HS02004802HS02004478 CONDUIT     15.43     0  02:47      0.14    0.01    0.16
  HS02004478WS02006287 CONDUIT     41.18     0  02:44      0.62    0.01    0.07
  HS02004817HS02004807 CONDUIT     13.18     0  02:47      0.05    0.01    0.40
  HS02004807HS02004802 CONDUIT     15.42     0  02:44      0.19    0.03    0.19
  YS02001759YS02001757 CONDUIT     36.11     0  07:21      0.12    0.03    0.72
  YS02001762YS02001759 CONDUIT     36.53     0  06:37      0.17    0.04    0.65
  YS02001765YS02001762 CONDUIT     23.65     0  07:21      0.22    0.02    0.61
  YS02001770YS02001767 CONDUIT     23.21     0  06:36      0.23    0.09    0.55
  YS02001774YS02001770 CONDUIT     12.01     0  07:18      0.12    0.01    0.56
  YS02001779YS02001774 CONDUIT      9.29     0  07:13      0.03    0.00    0.48
  YS02001649YS02001757 CONDUIT     56.88     0  03:29      0.10    0.03    0.71
  YS02001767YS02001765 CONDUIT     33.70     0  06:36      0.25    0.04    0.57
  YS02006561YS02001783 CONDUIT     57.19     0  03:06      1.15    0.03    0.16
  YS02001783YS02001784 CONDUIT     57.18     0  03:07      0.72    0.08    0.22
  YS02001784YS02001785 CONDUIT     58.23     0  03:07      0.71    0.14    0.22
  YS02001788YS02001790 CONDUIT     58.35     0  03:08      1.16    0.04    0.16
  YS02001790YS02001791 CONDUIT     58.50     0  03:08      1.32    0.06    0.14
  YS02001791YS02001793 CONDUIT     58.50     0  03:09      2.35    0.03    0.10
  YS02001910YS02001907 CONDUIT     18.49     0  03:09      0.49    0.01    0.51
  YS02001786YS02001788 CONDUIT     58.28     0  03:08      1.01    0.11    0.17
  YS02001915YS02001910 CONDUIT     18.55     0  03:04      0.44    0.01    0.30
  YS02001918YS02001915 CONDUIT      7.68     0  03:07      0.44    0.00    0.12
  YS02001923YS02001920 CONDUIT      4.82     0  03:04      0.16    0.00    0.08
  YS02001926YS02001923 CONDUIT      4.79     0  03:04      0.24    0.01    0.06
  YS02001929YS02001926 CONDUIT      4.76     0  03:01      0.24    0.00    0.06
  YS02001920YS02001918 CONDUIT      7.69     0  03:06      0.23    0.01    0.09
  YS02001629YS02163301 CONDUIT     16.95     0  03:18      0.06    0.02    0.51
  YS02001619YS02001622 CONDUIT     10.96     0  03:17      0.39    0.02    0.13
  YS02001622YS02001625 CONDUIT     12.71     0  03:17      0.13    0.01    0.29
  YS02001625YS02001629 CONDUIT     14.43     0  03:18      0.09    0.01    0.28
  YS02163301YS02001633 CONDUIT     18.06     0  03:17      0.05    0.02    0.56
  YS02163601YS02164001 CONDUIT     32.96     0  03:18      0.07    0.03    0.61
  YS02164001YS02001641 CONDUIT     33.92     0  03:18      0.07    0.05    0.59
  YS02001641YS02001644 CONDUIT     33.00     0  03:18      0.08    0.11    0.60
  YS02001647YS02001649 CONDUIT     42.96     0  03:28      0.11    0.02    0.54
  YS02006553YS02006556 CONDUIT     39.46     0  03:09      0.18    0.03    0.59
  YS02006556YS02006558 CONDUIT     39.47     0  03:09      0.08    0.03    0.62
  YSB6556YSB1171       CONDUIT      2.24     0  01:37      0.03    0.00    0.42
  YS02001907YS02006553 CONDUIT     39.41     0  03:09      0.06    0.05    0.68
  YS02006558YS02006561 CONDUIT     57.20     0  03:06      1.43    0.13    0.20
  YS02001633YS02163601 CONDUIT     31.06     0  03:17      0.06    0.03    0.60
  YS02001644YS02001647 CONDUIT     43.72     0  03:28      0.11    0.03    0.52
  YS02001745YS02001748 CONDUIT     12.08     0  03:01      0.84    0.00    0.05
  YS02001748YS02001751 CONDUIT     12.16     0  03:01      0.71    0.01    0.11
  YS02001751YS02001754 CONDUIT     29.30     0  06:33      0.66    0.01    0.27
  YS02001754YS02001757 CONDUIT     59.95     0  05:45      0.33    0.02    0.60
  YS02001882YS02001884 CONDUIT      1.02     0  02:07      0.05    0.00    0.23
  YS02001884YS02001887 CONDUIT      3.21     0  02:10      0.04    0.00    0.32
  YS02001890YS02001895 CONDUIT     21.06     0  03:03      0.11    0.01    0.30
  YS02001895YS02001898 CONDUIT     21.02     0  03:04      0.30    0.04    0.16
  YS02001898YS02001901 CONDUIT     21.05     0  03:04      0.15    0.01    0.24
  YS02001901YS02001904 CONDUIT     20.97     0  03:05      0.17    0.03    0.29
  YS02001904YS02001907 CONDUIT     20.99     0  03:07      0.06    0.01    0.45
  YS02001887YS02001890 CONDUIT     21.23     0  03:00      0.10    0.04    0.38
  YS02001652YS02001649 CONDUIT     23.42     0  06:39      0.21    0.01    0.54
  YS02001655YS02001652 CONDUIT     17.07     0  03:12      0.70    0.01    0.30
  YS02001658YS02001655 CONDUIT     14.97     0  03:01      0.80    0.01    0.12
  YS02001661YS02001658 CONDUIT     14.98     0  03:01      0.86    0.01    0.06
  YS02001664YS02001661 CONDUIT     14.99     0  03:01      0.45    0.00    0.09
  YSB1154YSB6556       CONDUIT      2.09     0  02:39      0.19    0.00    0.31
  YSB1174YSB1171       CONDUIT      1.94     0  02:31      0.02    0.00    0.42
  YSB1171HS02004479    CONDUIT      3.78     0  02:45      0.54    0.00    0.31
  HS02004881HS02006253 CONDUIT      6.02     0  02:42      0.80    0.00    0.10
  YS02001793JiankangQianchi CONDUIT     58.50     0  03:09      7.98    0.00    0.50
  YS02001757CaochengTiaoxuchi CONDUIT     89.84     0  03:29      0.32    0.04    0.39
  WSF200WS02003060     CONDUIT    278.20     0  03:48      1.41    0.06    0.25
  1                    CONDUIT    610.68     0  04:35      2.90    0.21    0.31
  2                    CONDUIT      0.00     0  00:00      0.00    0.00    0.00
  3                    CONDUIT    159.15     0  00:25      7.36    0.25    0.34
  4                    CONDUIT      0.00     0  00:00      0.00    0.00    0.00
  CC-Pump-1            PUMP       173.39     0  03:48              0.87
  CC-Pump-2            PUMP       141.41     0  03:27              0.71
  JK-Pump-1            PUMP       149.77     0  00:25              0.50
  JK-Pump-2            PUMP       299.88     0  00:20              1.00
  XR-Pump-1            PUMP        95.00     0  00:00              1.00
  XR-Pump-2            PUMP        95.00     0  00:20              1.00
  XR-Pump-3            PUMP        95.00     0  00:00              1.00
  XR-Pump-4            PUMP        95.00     0  00:50              1.00
  
  
  ***************************
  Flow Classification Summary
  ***************************
  
  -------------------------------------------------------------------------------------
                      Adjusted    ---------- Fraction of Time in Flow Class ---------- 
                       /Actual         Up    Down  Sub   Sup   Up    Down  Norm  Inlet 
  Conduit               Length    Dry  Dry   Dry   Crit  Crit  Crit  Crit  Ltd   Ctrl  
  -------------------------------------------------------------------------------------
  WS02003066WSF200        1.00   0.05  0.03  0.00  0.00  0.92  0.00  0.00  0.82  0.00
  WS02006287WS02006284    1.00   0.06  0.02  0.00  0.87  0.04  0.00  0.00  0.81  0.00
  WS02006284WS02006280    1.00   0.07  0.00  0.00  0.00  0.00  0.00  0.93  0.00  0.00
  WS02006280WS02006229    1.00   0.07  0.00  0.00  0.00  0.00  0.00  0.93  0.00  0.00
  WS02006229WS02006228    1.00   0.00  0.00  0.00  1.00  0.00  0.00  0.00  0.00  0.00
  WS02006256WS02006235    1.00   0.01  0.00  0.00  0.99  0.00  0.00  0.00  0.00  0.00
  WS02006253WS02006251    1.00   0.04  0.02  0.00  0.93  0.00  0.00  0.00  0.00  0.00
  WS02006252WS02006251    1.00   0.17  0.01  0.00  0.00  0.00  0.82  0.00  0.00  0.00
  WS02006251WS02006249    1.00   0.00  0.00  0.00  1.00  0.00  0.00  0.00  0.44  0.00
  WS02006249WS02006248    1.00   0.00  0.01  0.00  0.76  0.00  0.24  0.00  0.00  0.00
  WS02006248WS02006247    1.00   0.01  0.00  0.00  0.96  0.00  0.00  0.03  0.40  0.00
  WS02006247WS02006245    1.00   0.01  0.00  0.00  0.96  0.00  0.00  0.03  0.00  0.00
  WS02006245WS02006243    1.00   0.01  0.00  0.00  0.90  0.00  0.00  0.09  0.07  0.00
  WS02006243WS02006242    1.00   0.01  0.01  0.00  0.98  0.00  0.00  0.00  0.45  0.00
  WS02006242WS02006240    1.00   0.01  0.00  0.00  0.99  0.00  0.00  0.00  0.00  0.00
  WS02006240WS02006239    1.00   0.01  0.00  0.00  0.92  0.00  0.00  0.07  0.02  0.00
  WS02006239WS02006238    1.00   0.01  0.00  0.00  0.99  0.00  0.00  0.00  0.00  0.00
  WS02006238WS02006235    1.00   0.01  0.00  0.00  0.99  0.00  0.00  0.00  0.00  0.00
  WS02006235WS02006234    1.00   0.01  0.00  0.00  0.92  0.00  0.07  0.00  0.00  0.00
  WS02006234WS02006232    1.00   0.01  0.00  0.00  0.99  0.00  0.00  0.00  0.09  0.00
  WS02006232WS02006231    1.00   0.01  0.00  0.00  0.99  0.00  0.00  0.00  0.00  0.00
  WS02006231WS02006230    1.00   0.01  0.00  0.00  0.00  0.00  0.99  0.00  0.00  0.00
  WS02006230WS02006229    1.00   0.00  0.00  0.00  0.99  0.00  0.00  0.01  0.01  0.00
  WS02006228WS02006109    1.00   0.00  0.00  0.00  1.00  0.00  0.00  0.00  0.00  0.00
  WS02006116WS02004401    1.00   0.04  0.00  0.00  0.96  0.00  0.00  0.00  0.00  0.00
  WS02006115WS02006116    1.00   0.04  0.00  0.00  0.95  0.00  0.00  0.01  0.00  0.00
  WS02006113WS02006111    1.00   0.02  0.00  0.00  0.00  0.98  0.00  0.00  0.17  0.00
  WS02006112WS02006115    1.00   0.03  0.01  0.00  0.95  0.00  0.01  0.00  0.00  0.00
  WS02006111WS02006112    1.00   0.03  0.00  0.00  0.96  0.01  0.00  0.01  0.95  0.00
  WS02006110WS02006113    1.00   0.00  0.02  0.00  0.98  0.00  0.00  0.00  0.00  0.00
  WS02006109WS02006110    1.00   0.00  0.00  0.00  0.99  0.00  0.00  0.00  0.00  0.00
  WS02004411WS02004412    1.00   0.06  0.00  0.00  0.94  0.00  0.00  0.00  0.00  0.00
  WS02004401WS02004402    1.00   0.04  0.00  0.00  0.96  0.00  0.00  0.00  0.00  0.00
  WS02004413WS02003067    1.00   0.06  0.02  0.00  0.00  0.00  0.92  0.00  0.00  0.00
  WS02004412WS02004413    1.00   0.06  0.00  0.00  0.94  0.00  0.00  0.00  0.01  0.00
  WS02004410WS02004411    1.00   0.06  0.00  0.00  0.94  0.00  0.00  0.00  0.01  0.00
  WS02004409WS02004410    1.00   0.06  0.00  0.00  0.94  0.00  0.00  0.00  0.03  0.00
  WS02004407WS02004409    1.00   0.06  0.00  0.00  0.94  0.00  0.00  0.00  0.91  0.00
  WS02004406WS02004407    1.00   0.00  0.06  0.00  0.94  0.00  0.00  0.00  0.00  0.00
  WS02004405WS02004406    1.00   0.00  0.00  0.00  1.00  0.00  0.00  0.00  0.03  0.00
  WS02004404WS02004405    1.00   0.00  0.00  0.00  1.00  0.00  0.00  0.00  0.00  0.00
  WS02004403WS02004404    1.00   0.00  0.05  0.00  0.95  0.00  0.00  0.00  0.00  0.00
  WS02004402WS02004403    1.00   0.05  0.00  0.00  0.95  0.00  0.00  0.00  0.00  0.00
  WS02004139WS02001211    1.00   0.00  0.00  0.00  1.00  0.00  0.00  0.00  0.00  0.00
  WS02004138WS02004139    1.00   0.00  0.00  0.00  1.00  0.00  0.00  0.00  1.00  0.00
  WS02003067WS02003066    1.00   0.08  0.01  0.00  0.92  0.00  0.00  0.00  0.00  0.00
  WS02001213WS02003059    1.00   0.00  0.00  0.00  1.00  0.00  0.00  0.00  0.00  0.00
  WS02001212WS02001213    1.00   0.00  0.00  0.00  0.41  0.00  0.59  0.00  0.00  0.00
  WS02001211WS02001212    1.00   0.00  0.00  0.00  1.00  0.00  0.00  0.00  0.00  0.00
  WS02003072WS02003073    1.00   0.00  0.00  0.00  0.00  0.00  0.00  1.00  0.00  0.00
  WS02003069WS02003072    1.00   0.00  0.00  0.00  1.00  0.00  0.00  0.00  0.50  0.00
  WS02003060WS02003069    1.00   0.00  0.00  0.00  0.99  0.01  0.00  0.00  0.21  0.00
  WS02003059WS02003060    1.00   0.00  0.00  0.00  1.00  0.00  0.00  0.00  0.01  0.00
  HS02004901HS02004770    1.00   0.07  0.00  0.00  0.93  0.00  0.00  0.00  0.04  0.00
  HS02004876HS02004881    1.00   0.01  0.00  0.00  0.99  0.00  0.00  0.00  0.00  0.00
  HS02004870HS02004876    1.00   0.00  0.00  0.00  0.99  0.00  0.00  0.00  0.95  0.00
  HS02004842HS02004848    1.00   0.00  0.07  0.00  0.93  0.00  0.00  0.00  0.80  0.00
  HS02004837HS02004842    1.00   0.00  0.00  0.00  1.00  0.00  0.00  0.00  0.11  0.00
  HS02004830HS02004837    1.00   0.00  0.00  0.00  1.00  0.00  0.00  0.00  0.99  0.00
  HS02004824HS02004830    1.00   0.00  0.00  0.00  1.00  0.00  0.00  0.00  0.00  0.00
  HS02004817HS02004824    1.00   0.00  0.00  0.00  1.00  0.00  0.00  0.00  1.00  0.00
  HS02004770HS02004777    1.00   0.00  0.07  0.00  0.93  0.00  0.00  0.00  0.08  0.00
  HS02004799HS02004480    1.00   0.00  0.02  0.00  0.91  0.00  0.08  0.00  0.00  0.00
  HS02004792HS02004799    1.00   0.00  0.00  0.00  1.00  0.00  0.00  0.00  0.98  0.00
  HS02004788HS02004792    1.00   0.00  0.00  0.00  1.00  0.00  0.00  0.00  0.98  0.00
  HS02004785HS02004788    1.00   0.00  0.00  0.00  1.00  0.00  0.00  0.00  0.00  0.00
  HS02004777HS02004785    1.00   0.00  0.00  0.00  1.00  0.00  0.00  0.00  0.23  0.00
  HS02004480HS02004478    1.00   0.08  0.00  0.00  0.86  0.00  0.00  0.06  0.00  0.00
  HS02004479HS02004480    1.00   0.02  0.00  0.00  0.98  0.00  0.00  0.00  0.17  0.00
  HS02004862HS02004870    1.00   0.00  0.00  0.00  1.00  0.00  0.00  0.00  0.06  0.00
  HS02004848HS02004852    1.00   0.07  0.00  0.00  0.93  0.00  0.00  0.00  0.66  0.00
  HS02004856HS02004862    1.00   0.00  0.12  0.00  0.88  0.00  0.00  0.00  0.71  0.00
  HS02004852HS02004856    1.00   0.07  0.01  0.00  0.92  0.00  0.00  0.00  0.81  0.00
  HS02004802HS02004478    1.00   0.07  0.01  0.00  0.92  0.00  0.00  0.00  0.00  0.00
  HS02004478WS02006287    1.00   0.09  0.00  0.00  0.91  0.00  0.00  0.00  0.81  0.00
  HS02004817HS02004807    1.00   0.00  0.07  0.00  0.93  0.00  0.00  0.00  0.00  0.00
  HS02004807HS02004802    1.00   0.07  0.00  0.00  0.92  0.00  0.00  0.00  0.01  0.00
  YS02001759YS02001757    1.00   0.00  0.00  0.00  1.00  0.00  0.00  0.00  0.17  0.00
  YS02001762YS02001759    1.00   0.00  0.00  0.00  1.00  0.00  0.00  0.00  0.06  0.00
  YS02001765YS02001762    1.00   0.00  0.00  0.00  1.00  0.00  0.00  0.00  0.24  0.00
  YS02001770YS02001767    1.00   0.00  0.00  0.00  1.00  0.00  0.00  0.00  0.00  0.00
  YS02001774YS02001770    1.00   0.00  0.09  0.00  0.91  0.00  0.00  0.00  0.07  0.00
  YS02001779YS02001774    1.00   0.00  0.00  0.00  1.00  0.00  0.00  0.00  0.31  0.00
  YS02001649YS02001757    1.00   0.00  0.00  0.00  1.00  0.00  0.00  0.00  0.20  0.00
  YS02001767YS02001765    1.00   0.00  0.00  0.00  1.00  0.00  0.00  0.00  0.01  0.00
  YS02006561YS02001783    1.00   0.12  0.00  0.00  0.00  0.88  0.00  0.00  0.70  0.00
  YS02001783YS02001784    1.00   0.00  0.12  0.00  0.88  0.00  0.00  0.00  0.54  0.00
  YS02001784YS02001785    1.00   0.00  0.00  0.00  1.00  0.00  0.00  0.00  0.29  0.00
  YS02001788YS02001790    1.00   0.00  0.00  0.00  0.12  0.88  0.00  0.00  1.00  0.00
  YS02001790YS02001791    1.00   0.00  0.00  0.00  0.00  1.00  0.00  0.00  0.00  0.00
  YS02001791YS02001793    1.00   0.00  0.00  0.00  0.00  1.00  0.00  0.00  0.00  0.00
  YS02001910YS02001907    1.00   0.00  0.00  0.00  0.99  0.00  0.00  0.01  0.13  0.00
  YS02001786YS02001788    1.00   0.00  0.00  0.00  0.71  0.29  0.00  0.00  0.00  0.00
  YS02001915YS02001910    1.00   0.00  0.00  0.00  1.00  0.00  0.00  0.00  0.27  0.00
  YS02001918YS02001915    1.00   0.00  0.00  0.00  0.99  0.00  0.00  0.00  0.79  0.00
  YS02001923YS02001920    1.00   0.00  0.00  0.00  1.00  0.00  0.00  0.00  1.00  0.00
  YS02001926YS02001923    1.00   0.00  0.05  0.00  0.00  0.00  0.95  0.00  0.00  0.00
  YS02001929YS02001926    1.00   0.00  0.07  0.00  0.93  0.00  0.00  0.00  0.86  0.00
  YS02001920YS02001918    1.00   0.00  0.00  0.00  1.00  0.00  0.00  0.00  0.00  0.00
  YS02001629YS02163301    1.00   0.10  0.01  0.00  0.89  0.00  0.00  0.00  0.00  0.00
  YS02001619YS02001622    1.00   0.07  0.00  0.00  0.93  0.00  0.00  0.00  0.00  0.00
  YS02001622YS02001625    1.00   0.07  0.00  0.00  0.93  0.00  0.00  0.00  0.17  0.00
  YS02001625YS02001629    1.00   0.07  0.05  0.00  0.83  0.00  0.04  0.00  0.00  0.00
  YS02163301YS02001633    1.00   0.00  0.10  0.00  0.90  0.00  0.00  0.00  0.00  0.00
  YS02163601YS02164001    1.00   0.00  0.06  0.00  0.94  0.00  0.00  0.00  0.00  0.00
  YS02164001YS02001641    1.00   0.00  0.05  0.00  0.94  0.00  0.00  0.00  0.07  0.00
  YS02001641YS02001644    1.00   0.00  0.00  0.00  1.00  0.00  0.00  0.00  0.00  0.00
  YS02001647YS02001649    1.00   0.00  0.12  0.00  0.88  0.00  0.00  0.00  0.01  0.00
  YS02006553YS02006556    1.00   0.00  0.00  0.00  1.00  0.00  0.00  0.00  0.03  0.00
  YS02006556YS02006558    1.00   0.00  0.00  0.00  1.00  0.00  0.00  0.00  0.00  0.00
  YSB6556YSB1171          1.00   0.02  0.05  0.00  0.93  0.00  0.00  0.00  0.00  0.00
  YS02001907YS02006553    1.00   0.00  0.01  0.00  0.99  0.00  0.00  0.00  0.00  0.00
  YS02006558YS02006561    1.00   0.12  0.00  0.00  0.00  0.88  0.00  0.00  0.49  0.00
  YS02001633YS02163601    1.00   0.00  0.00  0.00  1.00  0.00  0.00  0.00  0.20  0.00
  YS02001644YS02001647    1.00   0.00  0.12  0.00  0.88  0.00  0.00  0.00  0.00  0.00
  YS02001745YS02001748    1.00   0.00  0.00  0.00  0.00  0.00  0.00  1.00  0.00  0.00
  YS02001748YS02001751    1.00   0.00  0.00  0.00  0.94  0.06  0.00  0.00  0.86  0.00
  YS02001751YS02001754    1.00   0.00  0.00  0.00  0.87  0.00  0.00  0.13  0.06  0.00
  YS02001754YS02001757    1.00   0.00  0.00  0.00  1.00  0.00  0.00  0.00  0.30  0.00
  YS02001882YS02001884    1.00   0.10  0.01  0.00  0.90  0.00  0.00  0.00  0.00  0.00
  YS02001884YS02001887    1.00   0.05  0.02  0.00  0.94  0.00  0.00  0.00  0.00  0.00
  YS02001890YS02001895    1.00   0.00  0.11  0.00  0.89  0.00  0.00  0.00  0.00  0.00
  YS02001895YS02001898    1.00   0.11  0.00  0.00  0.88  0.00  0.01  0.00  0.00  0.00
  YS02001898YS02001901    1.00   0.10  0.01  0.00  0.89  0.00  0.00  0.00  0.02  0.00
  YS02001901YS02001904    1.00   0.10  0.00  0.00  0.90  0.00  0.00  0.00  0.00  0.00
  YS02001904YS02001907    1.00   0.00  0.10  0.00  0.90  0.00  0.00  0.00  0.00  0.00
  YS02001887YS02001890    1.00   0.00  0.00  0.00  0.99  0.00  0.01  0.00  0.00  0.00
  YS02001652YS02001649    1.00   0.00  0.00  0.00  1.00  0.00  0.00  0.00  0.30  0.00
  YS02001655YS02001652    1.00   0.00  0.00  0.00  0.87  0.00  0.00  0.13  0.06  0.00
  YS02001658YS02001655    1.00   0.00  0.09  0.00  0.85  0.06  0.00  0.00  0.79  0.00
  YS02001661YS02001658    1.00   0.09  0.00  0.00  0.00  0.91  0.00  0.00  0.74  0.00
  YS02001664YS02001661    1.00   0.07  0.00  0.00  0.93  0.00  0.00  0.00  0.86  0.00
  YSB1154YSB6556          1.00   0.07  0.00  0.00  0.93  0.00  0.00  0.00  0.02  0.00
  YSB1174YSB1171          1.00   0.04  0.02  0.00  0.94  0.00  0.00  0.00  0.00  0.00
  YSB1171HS02004479       1.00   0.02  0.00  0.00  0.95  0.00  0.00  0.03  0.13  0.00
  HS02004881HS02006253    1.00   0.04  0.00  0.00  0.10  0.03  0.00  0.83  0.07  0.00
  YS02001793JiankangQianchi    1.00   0.00  0.00  0.00  0.04  0.95  0.00  0.00  0.05  0.00
  YS02001757CaochengTiaoxuchi    1.00   0.00  0.17  0.00  0.83  0.00  0.00  0.00  0.00  0.00
  WSF200WS02003060        1.00   0.00  0.05  0.00  0.91  0.04  0.00  0.00  0.85  0.00
  1                       1.00   0.00  0.00  0.00  0.00  1.00  0.00  0.00  0.41  0.00
  2                       1.00   1.00  0.00  0.00  0.00  0.00  0.00  0.00  0.00  0.00
  3                       1.00   0.93  0.00  0.00  0.00  0.07  0.00  0.00  0.40  0.00
  4                       1.00   1.00  0.00  0.00  0.00  0.00  0.00  0.00  0.00  0.00
  
  
  *************************
  Conduit Surcharge Summary
  *************************
  
  ----------------------------------------------------------------------------
                                                           Hours        Hours 
                         --------- Hours Full --------   Above Full   Capacity
  Conduit                Both Ends  Upstream  Dnstream   Normal Flow   Limited
  ----------------------------------------------------------------------------
  WS02006229WS02006228        0.01      0.01      0.01      0.01         0.01
  WS02006256WS02006235        4.73      4.73      7.23      1.16         0.01
  WS02006252WS02006251        0.01      0.01      0.02      0.01         0.01
  WS02006249WS02006248        0.01      0.01      0.01      0.09         0.01
  WS02006247WS02006245        0.01      0.01      0.01      0.72         0.01
  WS02006235WS02006234        0.01      0.01      0.01      4.22         0.01
  WS02006231WS02006230        0.01      0.01      0.01      5.32         0.01
  WS02006230WS02006229        0.01      0.01      0.01      5.50         0.01
  WS02006228WS02006109        0.01      0.01      0.01      0.75         0.01
  WS02004404WS02004405        0.01      0.01      0.01      5.04         0.01
  WS02003072WS02003073        0.01      0.01      0.01      2.13         0.01
  YS02001793JiankangQianchi        0.01      0.01      0.35      0.01         0.01
  
  
  ***************
  Pumping Summary
  ***************
  
  ---------------------------------------------------------------------------------------------------------
                                                  Min       Avg       Max     Total     Power    % Time Off
                        Percent   Number of      Flow      Flow      Flow    Volume     Usage    Pump Curve
  Pump                 Utilized   Start-Ups       LPS       LPS       LPS  10^6 ltr     Kw-hr    Low   High
  ---------------------------------------------------------------------------------------------------------
  CC-Pump-1               55.32           8      0.00     53.96    173.39     0.784      3.20    0.0  100.0
  CC-Pump-2               46.72          10      0.00     52.25    141.41     0.644      2.64    0.0  100.0
  JK-Pump-1               82.98           6      0.00     33.01    149.77     0.628     11.82    0.0    0.0
  JK-Pump-2               91.45           6      0.00     40.60    299.88     0.834     15.07    0.0    0.0
  XR-Pump-1               87.22           6      0.00     66.74     95.00     1.625     31.89    0.0    0.0
  XR-Pump-2               78.71           9      0.00     64.61     95.00     1.454     28.84    0.0    0.0
  XR-Pump-3               97.87           3      0.00     80.95     95.00     2.166     43.05    0.0    0.0
  XR-Pump-4               80.84           6      0.00     66.60     95.00     1.482     30.58    0.0    0.0
  

  Analysis begun on:  Fri Dec 24 13:33:31 2021
  Analysis ended on:  Fri Dec 24 13:33:33 2021
  Total elapsed time: 00:00:02