
  EPA STORM WATER MANAGEMENT MODEL - VERSION 5.1 (Build 5.3.0.dev0)
  --------------------------------------------------------------

  WARNING 04: minimum elevation drop used for Conduit WS02004404WS02004405
  WARNING 03: negative offset ignored for Link YS02001904YS02001907
  
  *********************************************************
  NOTE: The summary statistics displayed in this report are
  based on results found at every computational time step,  
  not just on results from each reporting time step.
  *********************************************************
  
  ****************
  Analysis Options
  ****************
  Flow Units ............... LPS
  Process Models:
    Rainfall/Runoff ........ YES
    RDII ................... NO
    Snowmelt ............... NO
    Groundwater ............ NO
    Flow Routing ........... YES
    Ponding Allowed ........ NO
    Water Quality .......... NO
  Infiltration Method ...... HORTON
  Flow Routing Method ...... DYNWAVE
  Surcharge Method ......... EXTRAN
  Starting Date ............ 08/28/2015 08:00:00
  Ending Date .............. 08/28/2015 15:50:00
  Antecedent Dry Days ...... 8.0
  Report Time Step ......... 00:01:00
  Wet Time Step ............ 00:01:00
  Dry Time Step ............ 00:01:00
  Routing Time Step ........ 5.00 sec
  Variable Time Step ....... YES
  Maximum Trials ........... 8
  Number of Threads ........ 4
  Head Tolerance ........... 0.001500 m
  
  
  **************************        Volume         Depth
  Runoff Quantity Continuity     hectare-m            mm
  **************************     ---------       -------
  Total Precipitation ......         1.823         3.991
  Evaporation Loss .........         0.000         0.000
  Infiltration Loss ........         0.449         0.982
  Surface Runoff ...........         0.585         1.282
  Final Storage ............         0.789         1.728
  Continuity Error (%) .....        -0.017
  
  
  **************************        Volume        Volume
  Flow Routing Continuity        hectare-m      10^6 ltr
  **************************     ---------     ---------
  Dry Weather Inflow .......         0.616         6.165
  Wet Weather Inflow .......         0.585         5.849
  Groundwater Inflow .......         0.000         0.000
  RDII Inflow ..............         0.000         0.000
  External Inflow ..........         0.102         1.024
  External Outflow .........         1.493        14.927
  Flooding Loss ............         0.000         0.000
  Evaporation Loss .........         0.000         0.000
  Exfiltration Loss ........         0.000         0.000
  Initial Stored Volume ....         0.076         0.761
  Final Stored Volume ......         0.133         1.325
  Continuity Error (%) .....       -17.790
  
  
  *************************
  Highest Continuity Errors
  *************************
  Node JK-storage (-51.65%)
  Node HS02004842 (38.23%)
  Node YS02001884 (32.24%)
  Node YS02001774 (17.86%)
  Node YSB1171 (11.22%)
  
  
  ***************************
  Time-Step Critical Elements
  ***************************
  Link WS02006252WS02006251 (70.94%)
  Link 3 (15.54%)
  Link WS02006238WS02006235 (4.85%)
  Link WS02006280WS02006229 (3.03%)
  
  
  ********************************
  Highest Flow Instability Indexes
  ********************************
  Link WS02006113WS02006111 (47)
  Link WS02006111WS02006112 (22)
  Link YS02001754YS02001757 (3)
  Link YS02001751YS02001754 (3)
  Link YS02001767YS02001765 (3)
  
  
  *************************
  Routing Time Step Summary
  *************************
  Minimum Time Step           :     0.50 sec
  Average Time Step           :     0.98 sec
  Maximum Time Step           :     5.00 sec
  Percent in Steady State     :    -0.00
  Average Iterations per Step :     2.05
  Percent Not Converging      :     0.02
  
  
  ***************************
  Subcatchment Runoff Summary
  ***************************
  
  ------------------------------------------------------------------------------------------------------------------------------
                            Total      Total      Total      Total     Imperv       Perv      Total       Total     Peak  Runoff
                           Precip      Runon       Evap      Infil     Runoff     Runoff     Runoff      Runoff   Runoff   Coeff
  Subcatchment                 mm         mm         mm         mm         mm         mm         mm    10^6 ltr      LPS
  ------------------------------------------------------------------------------------------------------------------------------
  sub0                       3.99       0.00       0.00       0.28       2.45       0.00       2.45        0.00     0.74   0.613
  sub1                       3.99       0.00       0.00       0.44       2.30       0.00       2.30        0.02     3.72   0.576
  sub2                       3.99       0.00       0.00       1.48       1.61       0.00       1.61        0.02     3.26   0.404
  sub3                       3.99       0.00       0.00       1.48       1.58       0.00       1.58        0.04     6.63   0.396
  sub4                       3.99       0.00       0.00       0.44       2.18       0.00       2.18        0.05     7.37   0.545
  sub5                       3.99       0.00       0.00       0.28       2.40       0.00       2.40        0.03     6.61   0.602
  sub7                       3.99       0.00       0.00       0.36       2.38       0.00       2.38        0.01     2.37   0.596
  sub8                       3.99       0.00       0.00       0.36       2.37       0.00       2.37        0.02     4.15   0.594
  sub9                       3.99       0.00       0.00       0.36       2.37       0.00       2.37        0.01     3.07   0.593
  sub10                      3.99       0.00       0.00       0.32       2.38       0.00       2.38        0.03     6.61   0.597
  sub11                      3.99       0.00       0.00       0.32       2.40       0.00       2.40        0.03     7.83   0.601
  sub12                      3.99       0.00       0.00       0.52       2.28       0.00       2.28        0.02     6.73   0.572
  sub14                      3.99       0.00       0.00       0.36       2.37       0.00       2.37        0.02     6.00   0.593
  sub15                      3.99       0.00       0.00       1.20       1.82       0.00       1.82        0.03     8.12   0.455
  sub16                      3.99       0.00       0.00       1.32       1.76       0.00       1.76        0.02     5.89   0.440
  sub17                      3.99       0.00       0.00       1.28       1.78       0.00       1.78        0.02     4.74   0.446
  sub22                      3.99       0.00       0.00       1.72       1.49       0.00       1.49        0.09    26.80   0.373
  sub23                      3.99       0.00       0.00       1.48       1.65       0.00       1.65        0.08    22.86   0.412
  sub60                      3.99       0.00       0.00       0.48       1.39       0.00       1.39        0.42    35.19   0.348
  sub61                      3.99       0.00       0.00       0.68       1.54       0.00       1.54        0.48    45.11   0.386
  sub62                      3.99       0.00       0.00       0.32       1.64       0.00       1.64        0.50    45.92   0.410
  sub63                      3.99       0.00       0.00       1.16       1.39       0.00       1.39        0.42    42.32   0.349
  sub64                      3.99       0.00       0.00       0.60       1.32       0.00       1.32        0.40    33.35   0.332
  sub65                      3.99       0.00       0.00       0.52       1.34       0.00       1.34        0.41    33.76   0.335
  sub66                      3.99       0.00       0.00       1.16       1.17       0.00       1.17        0.36    30.85   0.293
  sub67                      3.99       0.00       0.00       0.32       1.86       0.00       1.86        0.57    59.67   0.465
  sub68                      3.99       0.00       0.00       0.56       1.65       0.00       1.65        0.51    50.04   0.415
  sub69                      3.99       0.00       0.00       0.60       1.85       0.00       1.85        0.43    50.42   0.463
  sub70                      3.99       1.89       0.00       2.00       2.09       0.00       2.09        0.48    36.62   0.356
  sub71                      3.99       0.00       0.00       0.32       1.54       0.00       1.54        0.36    31.81   0.387
  sub72                      3.99       0.00       0.00       0.28       1.01       0.00       1.01        0.21    14.23   0.253
  sub73                      3.99       2.04       0.00       2.05       2.02       0.00       2.02        0.47    31.23   0.335
  sub74                      3.99       0.00       0.00       2.99       0.56       0.00       0.56        0.23    28.29   0.141
  
  
  ******************
  Node Depth Summary
  ******************
  
  ---------------------------------------------------------------------------------
                                 Average  Maximum  Maximum  Time of Max    Reported
                                   Depth    Depth      HGL   Occurrence   Max Depth
  Node                 Type       Meters   Meters   Meters  days hr:min      Meters
  ---------------------------------------------------------------------------------
  WS02001211           JUNCTION     0.66     0.77     5.61     0  04:51        0.77
  WS02001212           JUNCTION     0.38     0.48     5.54     0  04:51        0.47
  WS02001213           JUNCTION     0.61     0.71     5.48     0  04:51        0.71
  WS02003069           JUNCTION     0.42     0.52     5.10     0  03:08        0.52
  WS02003072           JUNCTION     0.49     0.58     4.95     0  03:09        0.58
  WS02003073           JUNCTION     0.29     0.35     4.42     0  03:10        0.35
  WS02003060           JUNCTION     0.38     0.46     5.39     0  03:08        0.46
  WS02003066           JUNCTION     0.22     0.28     5.83     0  03:00        0.28
  WS02003059           JUNCTION     0.67     0.76     5.45     0  04:52        0.76
  WS02003067           JUNCTION     0.55     0.67     5.99     0  03:00        0.67
  WS02004401           JUNCTION     0.64     0.79     6.79     0  02:55        0.79
  WS02004402           JUNCTION     0.67     0.82     6.78     0  02:55        0.82
  WS02004403           JUNCTION     0.69     0.84     6.77     0  02:55        0.84
  WS02004404           JUNCTION     0.77     0.91     6.76     0  02:55        0.91
  WS02004406           JUNCTION     0.78     0.91     6.74     0  02:56        0.91
  WS02004409           JUNCTION     0.46     0.61     6.38     0  02:58        0.61
  WS02004410           JUNCTION     0.48     0.63     6.35     0  02:59        0.63
  WS02004411           JUNCTION     0.50     0.64     6.32     0  02:59        0.64
  WS02004412           JUNCTION     0.51     0.65     6.29     0  02:59        0.65
  WS02004413           JUNCTION     0.67     0.82     6.29     0  02:59        0.82
  WS02004405           JUNCTION     0.77     0.91     6.76     0  02:55        0.91
  WS02006109           JUNCTION     0.71     0.89     7.51     0  02:48        0.89
  WS02006110           JUNCTION     0.71     0.87     7.45     0  02:48        0.87
  WS02006111           JUNCTION     0.21     0.27     6.97     0  02:49        0.27
  WS02006112           JUNCTION     0.80     0.98     6.86     0  02:56        0.98
  WS02006113           JUNCTION     0.32     0.42     7.31     0  02:49        0.42
  WS02006115           JUNCTION     0.53     0.69     6.83     0  02:55        0.69
  WS02006116           JUNCTION     0.61     0.77     6.81     0  02:55        0.77
  WS02006230           JUNCTION     0.67     0.92     7.67     0  02:48        0.92
  WS02006231           JUNCTION     0.45     0.62     7.74     0  02:48        0.62
  WS02006232           JUNCTION     0.59     0.76     7.80     0  02:48        0.76
  WS02006234           JUNCTION     0.50     0.71     7.87     0  02:49        0.71
  WS02006235           JUNCTION     0.54     0.75     7.91     0  02:49        0.75
  WS02006238           JUNCTION     0.56     0.78     7.92     0  02:49        0.78
  WS02006240           JUNCTION     0.46     0.71     8.00     0  02:49        0.71
  WS02006242           JUNCTION     0.52     0.78     8.05     0  02:49        0.78
  WS02006243           JUNCTION     0.40     0.67     8.09     0  02:50        0.67
  WS02006245           JUNCTION     0.38     0.64     8.13     0  02:49        0.64
  WS02006247           JUNCTION     0.40     0.66     8.16     0  02:49        0.66
  WS02006248           JUNCTION     0.35     0.59     8.18     0  02:50        0.59
  WS02006249           JUNCTION     0.39     0.61     8.21     0  02:50        0.61
  WS02006239           JUNCTION     0.52     0.76     7.96     0  02:49        0.76
  WS02006251           JUNCTION     0.38     0.63     8.30     0  02:49        0.63
  WS02006252           JUNCTION     0.35     0.58     8.83     0  02:44        0.58
  WS02006253           JUNCTION     0.40     0.66     8.30     0  02:48        0.66
  WS02006256           JUNCTION     0.96     1.16     8.09     0  03:17        1.15
  WS02004138           JUNCTION     0.15     0.20     7.45     0  00:00        0.19
  WS02004407           JUNCTION     0.21     0.27     6.59     0  02:56        0.27
  WS02006228           JUNCTION     0.71     0.91     7.56     0  02:48        0.91
  WS02006229           JUNCTION     0.68     0.90     7.59     0  02:48        0.90
  WS02006280           JUNCTION     0.05     0.11     8.38     0  02:25        0.11
  WS02006284           JUNCTION     0.33     0.43     8.82     0  02:25        0.43
  WS02006287           JUNCTION     0.07     0.15     9.11     0  02:25        0.15
  WSF200               JUNCTION     0.20     0.29     5.52     0  03:01        0.28
  HS02004901           JUNCTION     0.10     0.18    10.00     0  02:24        0.18
  HS02004881           JUNCTION     0.00     0.02     9.04     0  02:25        0.02
  HS02004876           JUNCTION     0.03     0.08     9.11     0  02:24        0.08
  HS02004870           JUNCTION     0.01     0.03     9.31     0  02:24        0.03
  HS02004862           JUNCTION     0.01     0.03     9.41     0  02:26        0.03
  HS02004856           JUNCTION     0.07     0.09     9.52     0  02:25        0.09
  HS02004852           JUNCTION     0.00     0.02     9.53     0  02:26        0.02
  HS02004848           JUNCTION     0.00     0.02     9.62     0  02:23        0.02
  HS02004842           JUNCTION     0.32     0.35     9.62     0  02:22        0.35
  HS02004837           JUNCTION     0.02     0.04     9.62     0  02:23        0.04
  HS02004830           JUNCTION     0.03     0.05     9.52     0  02:23        0.05
  HS02004824           JUNCTION     0.02     0.03     9.43     0  02:26        0.03
  HS02004817           JUNCTION     0.41     0.48     9.33     0  02:25        0.48
  HS02004807           JUNCTION     0.10     0.16     9.33     0  02:25        0.16
  HS02004802           JUNCTION     0.14     0.20     9.32     0  02:25        0.20
  HS02004799           JUNCTION     0.09     0.19     9.40     0  02:23        0.19
  HS02004792           JUNCTION     0.02     0.06     9.59     0  02:23        0.06
  HS02004788           JUNCTION     0.01     0.05     9.95     0  02:24        0.05
  HS02004785           JUNCTION     0.03     0.09     9.99     0  02:24        0.09
  HS02004777           JUNCTION     0.12     0.20    10.00     0  02:24        0.20
  HS02004770           JUNCTION     0.09     0.17    10.00     0  02:23        0.17
  HS02004480           JUNCTION     0.05     0.14     9.38     0  02:24        0.14
  HS02004479           JUNCTION     0.09     0.18     9.38     0  02:24        0.18
  HS02004478           JUNCTION     0.04     0.09     9.32     0  02:25        0.09
  YS02001745           JUNCTION     0.06     0.08     7.60     0  03:01        0.08
  YS02001748           JUNCTION     0.07     0.09     7.17     0  03:08        0.09
  YS02001751           JUNCTION     0.18     0.30     7.18     0  03:08        0.30
  YS02001754           JUNCTION     0.43     0.58     7.18     0  03:08        0.58
  YS02001762           JUNCTION     0.63     0.77     7.17     0  03:05        0.77
  YS02001765           JUNCTION     0.58     0.73     7.18     0  03:07        0.73
  YS02001767           JUNCTION     0.54     0.69     7.17     0  03:09        0.69
  YS02001770           JUNCTION     0.54     0.68     7.17     0  03:10        0.68
  YS02001774           JUNCTION     0.61     0.75     7.17     0  03:01        0.75
  YS02001779           JUNCTION     0.36     0.49     7.17     0  03:01        0.49
  YS02001882           JUNCTION     0.22     0.32     7.03     0  03:01        0.31
  YS02001884           JUNCTION     0.31     0.41     7.03     0  03:00        0.41
  YS02001759           JUNCTION     0.66     0.81     7.17     0  03:07        0.81
  YS02001887           JUNCTION     0.39     0.49     7.03     0  03:00        0.49
  YS02001890           JUNCTION     0.42     0.52     7.03     0  03:01        0.52
  YS02001898           JUNCTION     0.19     0.28     7.02     0  03:02        0.28
  YS02001901           JUNCTION     0.31     0.41     7.02     0  03:01        0.41
  YS02001904           JUNCTION     0.29     0.38     7.01     0  03:01        0.38
  YS02001907           JUNCTION     0.61     0.73     7.01     0  03:02        0.73
  YS02001910           JUNCTION     0.40     0.51     7.01     0  03:02        0.51
  YS02001915           JUNCTION     0.21     0.30     7.01     0  03:01        0.30
  YS02001918           JUNCTION     0.06     0.07     7.13     0  03:05        0.07
  YS02001619           JUNCTION     0.15     0.25     7.18     0  03:07        0.25
  YS02001629           JUNCTION     0.49     0.63     7.18     0  03:06        0.63
  YS02001641           JUNCTION     0.59     0.74     7.17     0  03:07        0.74
  YS02001644           JUNCTION     0.60     0.74     7.17     0  03:10        0.74
  YS02001652           JUNCTION     0.44     0.58     7.18     0  03:04        0.58
  YS02001655           JUNCTION     0.21     0.32     7.17     0  03:04        0.32
  YS02001920           JUNCTION     0.14     0.16     7.17     0  03:04        0.16
  YS02001923           JUNCTION     0.05     0.06     7.32     0  03:02        0.06
  YS02001926           JUNCTION     0.11     0.13     7.57     0  03:02        0.13
  YS02001929           JUNCTION     0.05     0.06     7.75     0  03:01        0.06
  YS02001658           JUNCTION     0.06     0.09     7.23     0  02:55        0.09
  YS02001661           JUNCTION     0.12     0.16     7.56     0  02:54        0.16
  YS02001664           JUNCTION     0.05     0.08     8.01     0  02:54        0.08
  YS02001622           JUNCTION     0.17     0.27     7.18     0  03:07        0.27
  YS02001633           JUNCTION     0.58     0.72     7.18     0  03:05        0.72
  YS02001649           JUNCTION     0.63     0.78     7.17     0  03:09        0.78
  YS02001757           JUNCTION     0.76     0.91     7.18     0  03:08        0.91
  YS02001895           JUNCTION     0.19     0.28     7.03     0  03:01        0.28
  YS02001625           JUNCTION     0.44     0.57     7.18     0  03:06        0.57
  YS02163301           JUNCTION     0.52     0.66     7.18     0  03:06        0.66
  YS02163601           JUNCTION     0.63     0.78     7.18     0  03:06        0.78
  YS02164001           JUNCTION     0.57     0.72     7.17     0  03:05        0.72
  YS02001647           JUNCTION     0.43     0.56     7.17     0  03:09        0.56
  YSB1154              JUNCTION     0.23     0.32     9.38     0  02:24        0.32
  YSB6556              JUNCTION     0.12     0.21     9.38     0  02:24        0.21
  YSB1174              JUNCTION     0.18     0.27     9.38     0  02:24        0.27
  YSB1171              JUNCTION     0.38     0.48     9.38     0  02:24        0.48
  YS02006553           JUNCTION     0.62     0.73     7.01     0  03:01        0.73
  YS02006561           JUNCTION     0.10     0.16     6.82     0  03:01        0.15
  YS02006556           JUNCTION     0.59     0.70     7.01     0  03:01        0.70
  YS02006558           JUNCTION     0.64     0.75     7.01     0  03:01        0.75
  YS02001783           JUNCTION     0.17     0.27     6.41     0  03:01        0.27
  YS02001784           JUNCTION     0.21     0.30     6.37     0  03:02        0.30
  YS02001786           JUNCTION     0.18     0.26     6.29     0  03:02        0.26
  YS02001788           JUNCTION     0.12     0.19     6.16     0  03:02        0.19
  YS02001790           JUNCTION     0.15     0.23     5.87     0  03:03        0.23
  YS02001791           JUNCTION     0.10     0.15     5.62     0  03:07        0.15
  YS02001793           JUNCTION     0.07     0.10     4.93     0  03:03        0.10
  WS02004139           JUNCTION     0.60     0.71     5.62     0  04:50        0.71
  WSC                  OUTFALL      0.29     0.35     1.02     0  03:10        0.35
  3                    OUTFALL      0.04     0.15     6.15     0  03:17        0.15
  4                    OUTFALL      0.02     0.11     7.11     0  02:50        0.11
  5                    OUTFALL      0.00     0.00     5.00     0  00:00        0.00
  JK-storage           STORAGE      0.07     3.00     3.80     0  00:00        2.70
  CC-storage           STORAGE      0.01     0.05     7.05     0  03:52        0.05
  XR-storage           STORAGE      0.85     5.00     3.00     0  00:00        4.91
  
  
  *******************
  Node Inflow Summary
  *******************
  
  -------------------------------------------------------------------------------------------------
                                  Maximum  Maximum                  Lateral       Total        Flow
                                  Lateral    Total  Time of Max      Inflow      Inflow     Balance
                                   Inflow   Inflow   Occurrence      Volume      Volume       Error
  Node                 Type           LPS      LPS  days hr:min    10^6 ltr    10^6 ltr     Percent
  -------------------------------------------------------------------------------------------------
  WS02001211           JUNCTION      7.35   385.73     0  00:10       0.207        7.19       0.387
  WS02001212           JUNCTION      0.00   383.54     0  00:10           0        7.16       0.249
  WS02001213           JUNCTION      0.00   383.13     0  00:11           0        7.14       0.276
  WS02003069           JUNCTION      0.32   761.04     0  03:08     0.00902        13.6       0.165
  WS02003072           JUNCTION      0.00   761.03     0  03:09           0        13.6       0.218
  WS02003073           JUNCTION      1.82   762.85     0  03:09      0.0514        13.6       0.238
  WS02003060           JUNCTION     16.53   760.70     0  03:08       0.466        13.7       0.158
  WS02003066           JUNCTION      0.00   461.86     0  03:00           0        6.11       0.057
  WS02003059           JUNCTION      0.00   380.41     0  00:11           0        7.13       0.429
  WS02003067           JUNCTION      0.00   461.85     0  02:59           0        6.12       0.125
  WS02004401           JUNCTION      0.00   463.66     0  02:54           0         6.3       0.268
  WS02004402           JUNCTION      0.00   463.24     0  02:53           0        6.29       0.260
  WS02004403           JUNCTION      0.00   463.19     0  02:54           0        6.27       0.242
  WS02004404           JUNCTION      0.16   463.21     0  02:55     0.00457        6.26       0.189
  WS02004406           JUNCTION      0.00   463.21     0  02:55           0        6.23       0.463
  WS02004409           JUNCTION      0.00   463.18     0  02:56           0         6.2       0.185
  WS02004410           JUNCTION      0.00   462.51     0  02:58           0        6.19       0.219
  WS02004411           JUNCTION      0.00   462.24     0  02:58           0        6.17       0.233
  WS02004412           JUNCTION      0.00   462.06     0  02:59           0        6.16       0.263
  WS02004413           JUNCTION      0.00   461.94     0  02:59           0        6.14       0.404
  WS02004405           JUNCTION      0.04   463.21     0  02:55     0.00107        6.25       0.282
  WS02006109           JUNCTION      1.23   466.47     0  02:48      0.0347        6.38       0.263
  WS02006110           JUNCTION      0.00   466.48     0  02:48           0        6.36       0.228
  WS02006111           JUNCTION      0.00   480.54     0  02:50           0        6.34       0.039
  WS02006112           JUNCTION      4.74   472.34     0  02:49      0.0153        6.35       0.377
  WS02006113           JUNCTION      0.00   466.55     0  02:48           0        6.35       0.095
  WS02006115           JUNCTION      0.00   467.17     0  02:50           0        6.33       0.223
  WS02006116           JUNCTION      0.00   464.29     0  02:52           0        6.32       0.220
  WS02006230           JUNCTION     10.28   389.37     0  04:17        0.29        5.76       0.145
  WS02006231           JUNCTION      0.00   379.12     0  04:16           0        5.48       0.134
  WS02006232           JUNCTION      0.00   379.12     0  04:16           0        5.49       0.201
  WS02006234           JUNCTION      0.00   379.64     0  04:13           0         5.5       0.052
  WS02006235           JUNCTION      0.00   380.19     0  04:27           0        5.53       0.127
  WS02006238           JUNCTION      0.00   340.04     0  03:10           0        3.78       0.100
  WS02006240           JUNCTION      0.00   335.93     0  03:10           0        3.77       0.093
  WS02006242           JUNCTION      0.00   333.12     0  03:10           0        3.76       0.108
  WS02006243           JUNCTION      0.00   328.25     0  03:11           0        3.75      -0.191
  WS02006245           JUNCTION      0.00   328.81     0  02:43           0        3.75       0.072
  WS02006247           JUNCTION      0.00   334.56     0  02:43           0        3.75       0.011
  WS02006248           JUNCTION      0.00   340.43     0  02:44           0        3.75      -0.041
  WS02006249           JUNCTION      0.00   414.42     0  02:49           0        4.02       0.070
  WS02006239           JUNCTION      0.00   338.95     0  03:10           0        3.77       0.126
  WS02006251           JUNCTION      0.08   417.56     0  02:45     0.00217        4.09       0.003
  WS02006252           JUNCTION      0.00   400.00     0  02:45           0        3.93       0.003
  WS02006253           JUNCTION      0.74    49.11     0  04:57     0.00198        0.15      -0.046
  WS02006256           JUNCTION      0.00   424.88     0  03:17           0        2.81       0.087
  WS02004138           JUNCTION      0.00   380.00     0  00:00           0        7.01       0.074
  WS02004407           JUNCTION      0.00   463.18     0  02:56           0         6.2       0.083
  WS02006228           JUNCTION      0.00   465.24     0  02:48           0        6.35       0.169
  WS02006229           JUNCTION      0.00   465.23     0  02:48           0        6.36       0.142
  WS02006280           JUNCTION      0.00   109.73     0  02:26           0       0.608       0.012
  WS02006284           JUNCTION      0.10   109.73     0  02:25      0.0027       0.609       0.189
  WS02006287           JUNCTION      0.00   109.64     0  02:25           0       0.607       0.114
  WSF200               JUNCTION      0.00   461.85     0  03:00           0        6.11       0.051
  HS02004901           JUNCTION      5.89     5.89     0  02:15      0.0184      0.0185      10.481
  HS02004881           JUNCTION      2.37    19.42     0  02:24     0.00801      0.0827       0.240
  HS02004876           JUNCTION      3.72    17.28     0  02:24      0.0153      0.0753       0.691
  HS02004870           JUNCTION      4.15    13.66     0  02:24      0.0151      0.0601       0.176
  HS02004862           JUNCTION      3.46     9.81     0  02:24      0.0206      0.0451       0.365
  HS02004856           JUNCTION      3.07     6.39     0  02:23      0.0114      0.0259       5.874
  HS02004852           JUNCTION      0.00     3.53     0  02:24           0      0.0146       0.325
  HS02004848           JUNCTION      6.63     6.63     0  02:26      0.0355      0.0355       0.117
  HS02004842           JUNCTION      0.00     4.47     0  00:03           0       0.034      61.897
  HS02004837           JUNCTION     12.96    15.94     0  02:21       0.205       0.226       0.361
  HS02004830           JUNCTION      0.15    16.08     0  02:23     0.00423       0.217       0.572
  HS02004824           JUNCTION      7.42    23.41     0  02:26      0.0468       0.262       0.206
  HS02004817           JUNCTION      0.60    24.00     0  02:26      0.0169       0.279       6.359
  HS02004807           JUNCTION      7.83    31.10     0  02:25      0.0278        0.29       1.479
  HS02004802           JUNCTION      0.00    31.14     0  02:27           0       0.286       1.441
  HS02004799           JUNCTION      6.00    66.91     0  02:22      0.0225       0.293       0.768
  HS02004792           JUNCTION     27.08    61.13     0  02:22       0.102       0.271       0.154
  HS02004788           JUNCTION      9.79    35.73     0  02:24      0.0783        0.17       0.230
  HS02004785           JUNCTION      0.15    26.37     0  02:23     0.00423      0.0942       0.508
  HS02004777           JUNCTION      0.03    26.73     0  02:20    0.000846      0.0944       5.792
  HS02004770           JUNCTION     22.86    27.78     0  02:18      0.0784      0.0952       3.365
  HS02004480           JUNCTION      0.00    78.74     0  02:23           0       0.338       0.201
  HS02004479           JUNCTION      0.00    12.09     0  02:26           0      0.0569       1.295
  HS02004478           JUNCTION      0.00   109.64     0  02:25           0       0.608       0.109
  YS02001745           JUNCTION     35.20    35.20     0  03:01       0.421       0.421       0.079
  YS02001748           JUNCTION      0.04    35.23     0  03:01     0.00127       0.422       0.039
  YS02001751           JUNCTION      0.01    59.06     0  04:49     0.00031        0.53       0.303
  YS02001754           JUNCTION      0.26   191.04     0  04:56     0.00733       0.935       1.158
  YS02001762           JUNCTION      0.00    52.73     0  03:03           0       0.555       2.526
  YS02001765           JUNCTION      0.00    70.16     0  04:31           0       0.544       2.727
  YS02001767           JUNCTION      0.54    58.58     0  04:55      0.0151       0.549       3.612
  YS02001770           JUNCTION     46.07    55.58     0  02:37       0.507       0.526       3.199
  YS02001774           JUNCTION      0.00    28.88     0  02:33           0      0.0823      21.742
  YS02001779           JUNCTION      0.01    15.68     0  02:34    0.000141      0.0485      11.881
  YS02001882           JUNCTION      0.00     2.15     0  02:10           0     0.00325      75.728
  YS02001884           JUNCTION      0.00     6.70     0  02:10           0      0.0132      47.586
  YS02001759           JUNCTION     45.15   103.79     0  03:03       0.476           1       1.595
  YS02001887           JUNCTION     60.12    60.12     0  02:52       0.585       0.591       1.114
  YS02001890           JUNCTION      0.00    59.90     0  02:55           0       0.573       1.267
  YS02001898           JUNCTION      0.00    59.68     0  02:58           0       0.563       0.313
  YS02001901           JUNCTION      0.00    59.75     0  02:57           0       0.563       0.875
  YS02001904           JUNCTION      0.00    59.47     0  03:03           0       0.563       0.817
  YS02001907           JUNCTION      0.00   108.25     0  03:03           0         1.2       1.787
  YS02001910           JUNCTION      0.00    49.00     0  03:01           0       0.646       1.471
  YS02001915           JUNCTION     31.83    48.77     0  03:01       0.365        0.65       0.589
  YS02001918           JUNCTION      0.00    17.12     0  03:04           0       0.286       0.277
  YS02001619           JUNCTION     30.85    30.85     0  03:01       0.358       0.358       0.158
  YS02001629           JUNCTION      0.00    36.19     0  02:42           0       0.342       1.658
  YS02001641           JUNCTION      0.00    68.44     0  03:09           0       0.722       1.773
  YS02001644           JUNCTION     33.39    99.54     0  03:08       0.404        1.11       1.401
  YS02001652           JUNCTION      0.00    57.63     0  04:48           0       0.479       1.918
  YS02001655           JUNCTION      0.15    42.47     0  02:55     0.00434       0.431       0.749
  YS02001920           JUNCTION      2.87    17.13     0  03:02      0.0809       0.287       0.580
  YS02001923           JUNCTION      0.04    14.26     0  03:02     0.00106       0.206       0.103
  YS02001926           JUNCTION      0.05    14.27     0  03:01     0.00147       0.207       0.749
  YS02001929           JUNCTION     14.23    14.23     0  03:01       0.206       0.206       0.097
  YS02001658           JUNCTION      0.00    42.32     0  02:54           0        0.42       0.047
  YS02001661           JUNCTION      0.00    42.32     0  02:54           0       0.421       0.171
  YS02001664           JUNCTION     42.32    42.32     0  02:54       0.421       0.421       0.033
  YS02001622           JUNCTION      0.00    31.81     0  02:51           0       0.358       0.720
  YS02001633           JUNCTION     33.96    67.41     0  02:41       0.417       0.746       2.497
  YS02001649           JUNCTION      0.00   153.71     0  03:07           0        1.53       1.548
  YS02001757           JUNCTION      0.00   346.68     0  04:17           0        3.16       2.205
  YS02001895           JUNCTION      0.00    59.68     0  02:55           0       0.566       0.542
  YS02001625           JUNCTION      0.00    33.94     0  02:51           0       0.355       4.279
  YS02163301           JUNCTION      0.00    39.04     0  02:42           0       0.343       3.662
  YS02163601           JUNCTION      0.11    69.73     0  02:42      0.0031       0.727       2.700
  YS02164001           JUNCTION      0.00    69.57     0  03:09           0       0.717       1.642
  YS02001647           JUNCTION      0.00   101.48     0  03:10           0        1.08       1.123
  YSB1154              JUNCTION      6.61     6.61     0  02:20      0.0272      0.0287       5.304
  YSB6556              JUNCTION      0.00     6.52     0  02:23           0      0.0298       4.359
  YSB1174              JUNCTION      6.73     6.73     0  02:14      0.0199       0.021       6.521
  YSB1171              JUNCTION      0.00    12.13     0  02:22           0      0.0563      12.635
  YS02006553           JUNCTION      0.00   108.41     0  03:03           0        1.19       1.165
  YS02006561           JUNCTION      0.00   158.58     0  03:01           0        1.67       0.030
  YS02006556           JUNCTION      0.00   108.55     0  03:03           0        1.19       0.834
  YS02006558           JUNCTION     50.92   158.60     0  03:01       0.533         1.7       0.251
  YS02001783           JUNCTION      0.00   158.57     0  03:01           0        1.67       0.070
  YS02001784           JUNCTION      1.06   159.62     0  03:01      0.0299         1.7       0.118
  YS02001786           JUNCTION      0.06   159.66     0  03:02     0.00159         1.7       0.115
  YS02001788           JUNCTION      0.07   159.72     0  03:02       0.002         1.7       0.064
  YS02001790           JUNCTION      0.15   159.87     0  03:02     0.00437         1.7       0.083
  YS02001791           JUNCTION      0.00   159.86     0  03:03           0         1.7       0.040
  YS02001793           JUNCTION      0.00   159.86     0  03:03           0         1.7       0.017
  WS02004139           JUNCTION      0.32   393.28     0  00:00     0.00905        7.02       0.479
  WSC                  OUTFALL       0.00   762.84     0  03:10           0        13.6       0.000
  3                    OUTFALL       0.00   328.09     0  03:17           0        1.04       0.000
  4                    OUTFALL       0.00   116.19     0  02:50           0       0.271       0.000
  5                    OUTFALL       0.00     0.00     0  00:00           0           0       0.000 ltr
  JK-storage           STORAGE       0.00   161.36     0  03:06           0        1.85     -34.060
  CC-storage           STORAGE       0.00   257.99     0  03:08           0        2.69     -32.229
  XR-storage           STORAGE     257.76   257.76     0  03:01        6.34        6.94      -2.696
  
  
  **********************
  Node Surcharge Summary
  **********************
  
  Surcharging occurs when water rises above the top of the highest conduit.
  ---------------------------------------------------------------------
                                               Max. Height   Min. Depth
                                   Hours       Above Crown    Below Rim
  Node                 Type      Surcharged         Meters       Meters
  ---------------------------------------------------------------------
  WS02006109           JUNCTION        0.95          0.071        1.749
  WS02006232           JUNCTION        1.15          0.062        1.418
  WS02006235           JUNCTION        0.44          0.040        1.250
  WS02006238           JUNCTION        0.83          0.059        1.371
  WS02006242           JUNCTION        0.58          0.052        0.768
  WS02006239           JUNCTION        0.30          0.015        1.275
  WS02006252           JUNCTION        1.66          0.184        0.916
  WS02006228           JUNCTION        0.84          0.081        2.119
  
  
  *********************
  Node Flooding Summary
  *********************
  
  No nodes were flooded.
  
  
  **********************
  Storage Volume Summary
  **********************
  
  --------------------------------------------------------------------------------------------------
                         Average     Avg  Evap Exfil       Maximum     Max    Time of Max    Maximum
                          Volume    Pcnt  Pcnt  Pcnt        Volume    Pcnt     Occurrence    Outflow
  Storage Unit           1000 m3    Full  Loss  Loss       1000 m3    Full    days hr:min        LPS
  --------------------------------------------------------------------------------------------------
  JK-storage               0.003       1     0     0         0.151      52       0  00:00     424.88
  CC-storage               0.021       0     0     0         0.144       1       0  03:52     400.00
  XR-storage               0.102      11     0     0         0.600      65       0  00:00     380.00
  
  
  ***********************
  Outfall Loading Summary
  ***********************
  
  -----------------------------------------------------------
                         Flow       Avg       Max       Total
                         Freq      Flow      Flow      Volume
  Outfall Node           Pcnt       LPS       LPS    10^6 ltr
  -----------------------------------------------------------
  WSC                   99.99    547.58    762.84      13.616
  3                     59.39     93.41    328.09       1.040
  4                     27.16     45.50    116.19       0.271
  5                      0.00      0.00      0.00       0.000
  -----------------------------------------------------------
  System                46.64    686.49   1068.09      14.927
  
  
  ********************
  Link Flow Summary
  ********************
  
  -----------------------------------------------------------------------------
                                 Maximum  Time of Max   Maximum    Max/    Max/
                                  |Flow|   Occurrence   |Veloc|    Full    Full
  Link                 Type          LPS  days hr:min     m/sec    Flow   Depth
  -----------------------------------------------------------------------------
  WS02003066WSF200     CONDUIT    461.85     0  03:00      2.67    0.08    0.21
  WS02006287WS02006284 CONDUIT    109.64     0  02:25      1.30    0.05    0.16
  WS02006284WS02006280 CONDUIT    109.73     0  02:26      1.55    0.05    0.15
  WS02006280WS02006229 CONDUIT    109.73     0  02:26      2.48    0.02    0.11
  WS02006229WS02006228 CONDUIT    465.24     0  02:48      0.93    1.54    1.00
  WS02006256WS02006235 CONDUIT    166.25     0  00:01      2.58    1.76    1.00
  WS02006253WS02006251 CONDUIT     55.33     0  06:40      0.38    0.17    0.91
  WS02006252WS02006251 CONDUIT    400.09     0  04:10      3.18    1.47    1.00
  WS02006251WS02006249 CONDUIT    414.42     0  02:49      1.17    1.19    0.89
  WS02006249WS02006248 CONDUIT    340.43     0  02:44      1.13    1.86    0.84
  WS02006248WS02006247 CONDUIT    334.56     0  02:43      1.10    0.73    0.88
  WS02006247WS02006245 CONDUIT    328.81     0  02:43      1.06    2.61    0.92
  WS02006245WS02006243 CONDUIT    328.25     0  03:11      1.10    0.97    0.93
  WS02006243WS02006242 CONDUIT    333.12     0  03:10      0.93    0.71    0.98
  WS02006242WS02006240 CONDUIT    335.93     0  03:10      0.89    1.33    1.00
  WS02006240WS02006239 CONDUIT    338.95     0  03:10      0.93    1.07    1.00
  WS02006239WS02006238 CONDUIT    340.04     0  03:10      0.90    1.09    1.00
  WS02006238WS02006235 CONDUIT    340.57     0  03:10      1.25    0.76    1.00
  WS02006235WS02006234 CONDUIT    379.64     0  04:13      1.01    4.01    0.99
  WS02006234WS02006232 CONDUIT    379.12     0  04:16      1.13    0.77    1.00
  WS02006232WS02006231 CONDUIT    379.12     0  04:16      1.04    0.79    0.94
  WS02006231WS02006230 CONDUIT    379.09     0  04:17      1.31    5.75    0.83
  WS02006230WS02006229 CONDUIT    389.38     0  04:17      1.01    8.67    1.00
  WS02006228WS02006109 CONDUIT    465.24     0  02:48      0.93    2.03    1.00
  WS02006116WS02004401 CONDUIT    463.66     0  02:54      0.73    0.64    0.78
  WS02006115WS02006116 CONDUIT    464.29     0  02:52      0.82    0.60    0.70
  WS02006113WS02006111 CONDUIT    480.54     0  02:50      2.34    0.58    0.43
  WS02006112WS02006115 CONDUIT    467.17     0  02:50      0.69    0.28    0.83
  WS02006111WS02006112 CONDUIT    470.14     0  02:49      1.33    0.22    0.66
  WS02006110WS02006113 CONDUIT    466.55     0  02:48      1.14    0.42    0.76
  WS02006109WS02006110 CONDUIT    466.48     0  02:48      0.94    0.90    0.97
  WS02004411WS02004412 CONDUIT    462.06     0  02:59      0.86    0.66    0.65
  WS02004401WS02004402 CONDUIT    463.24     0  02:53      0.77    0.56    0.81
  WS02004413WS02003067 CONDUIT    461.85     0  02:59      1.02    0.20    0.56
  WS02004412WS02004413 CONDUIT    461.94     0  02:59      0.75    0.31    0.73
  WS02004410WS02004411 CONDUIT    462.24     0  02:58      0.88    0.63    0.64
  WS02004409WS02004410 CONDUIT    462.51     0  02:58      0.92    0.60    0.62
  WS02004407WS02004409 CONDUIT    463.18     0  02:56      1.41    0.16    0.44
  WS02004406WS02004407 CONDUIT    463.18     0  02:56      0.95    0.21    0.59
  WS02004405WS02004406 CONDUIT    463.21     0  02:55      0.66    0.91    0.91
  WS02004404WS02004405 CONDUIT    463.18     0  02:55      0.84    4.54    0.91
  WS02004403WS02004404 CONDUIT    463.05     0  02:55      0.74    0.33    0.88
  WS02004402WS02004403 CONDUIT    463.19     0  02:54      0.76    0.67    0.83
  WS02004139WS02001211 CONDUIT    378.39     0  00:10      0.90    0.48    0.58
  WS02004138WS02004139 CONDUIT    392.96     0  00:00      3.64    0.08    0.43
  WS02003067WS02003066 CONDUIT    461.86     0  03:00      1.11    0.15    0.40
  WS02001213WS02003059 CONDUIT    380.41     0  00:11      0.90    0.63    0.73
  WS02001212WS02001213 CONDUIT    383.13     0  00:11      1.31    0.59    0.43
  WS02001211WS02001212 CONDUIT    383.54     0  00:10      0.78    0.29    0.62
  WS02003072WS02003073 CONDUIT    761.02     0  03:09      1.60    1.64    0.44
  WS02003069WS02003072 CONDUIT    761.03     0  03:09      1.52    0.37    0.46
  WS02003060WS02003069 CONDUIT    760.72     0  03:08      1.77    0.30    0.40
  WS02003059WS02003060 CONDUIT    377.98     0  00:12      0.93    0.25    0.61
  HS02004901HS02004770 CONDUIT      5.19     0  02:23      0.03    0.02    0.25
  HS02004876HS02004881 CONDUIT     17.30     0  02:25      0.35    0.18    0.07
  HS02004870HS02004876 CONDUIT     13.65     0  02:24      0.25    0.01    0.08
  HS02004842HS02004848 CONDUIT      3.28     0  02:36      0.02    0.00    0.26
  HS02004837HS02004842 CONDUIT      4.47     0  00:03      0.41    0.00    0.27
  HS02004830HS02004837 CONDUIT     15.93     0  02:23      0.37    0.02    0.06
  HS02004824HS02004830 CONDUIT     16.08     0  02:24      0.42    0.02    0.06
  HS02004817HS02004824 CONDUIT     23.40     0  02:26      0.17    0.01    0.36
  HS02004770HS02004777 CONDUIT     26.70     0  02:20      0.14    0.05    0.27
  HS02004799HS02004480 CONDUIT     66.78     0  02:23      0.42    0.08    0.23
  HS02004792HS02004799 CONDUIT     61.09     0  02:23      0.49    0.04    0.18
  HS02004788HS02004792 CONDUIT     35.70     0  02:24      0.65    0.02    0.08
  HS02004785HS02004788 CONDUIT     26.26     0  02:24      0.37    0.20    0.10
  HS02004777HS02004785 CONDUIT     26.22     0  02:23      0.18    0.03    0.21
  HS02004480HS02004478 CONDUIT     78.72     0  02:24      0.73    0.33    0.15
  HS02004479HS02004480 CONDUIT     12.20     0  02:26      0.15    0.01    0.23
  HS02004862HS02004870 CONDUIT      9.78     0  02:25      0.35    0.01    0.04
  HS02004848HS02004852 CONDUIT      3.53     0  02:24      0.22    0.00    0.02
  HS02004856HS02004862 CONDUIT      6.37     0  02:25      0.25    0.01    0.04
  HS02004852HS02004856 CONDUIT      3.50     0  02:26      0.07    0.00    0.08
  HS02004802HS02004478 CONDUIT     31.26     0  02:28      0.22    0.03    0.20
  HS02004478WS02006287 CONDUIT    109.64     0  02:25      0.99    0.03    0.12
  HS02004817HS02004807 CONDUIT     24.18     0  02:29      0.08    0.01    0.46
  HS02004807HS02004802 CONDUIT     31.14     0  02:27      0.19    0.06    0.24
  YS02001759YS02001757 CONDUIT    100.39     0  03:03      0.14    0.07    0.86
  YS02001762YS02001759 CONDUIT     72.09     0  04:28      0.17    0.08    0.79
  YS02001765YS02001762 CONDUIT     52.73     0  03:03      0.22    0.05    0.75
  YS02001770YS02001767 CONDUIT     57.64     0  02:37      0.31    0.23    0.68
  YS02001774YS02001770 CONDUIT     28.88     0  02:33      0.14    0.02    0.70
  YS02001779YS02001774 CONDUIT     15.68     0  02:34      0.06    0.01    0.62
  YS02001649YS02001757 CONDUIT    150.45     0  03:00      0.21    0.09    0.85
  YS02001767YS02001765 CONDUIT     70.16     0  04:31      0.26    0.09    0.70
  YS02006561YS02001783 CONDUIT    158.57     0  03:01      1.49    0.08    0.26
  YS02001783YS02001784 CONDUIT    158.56     0  03:01      0.99    0.22    0.36
  YS02001784YS02001785 CONDUIT    159.60     0  03:02      1.02    0.37    0.35
  YS02001788YS02001790 CONDUIT    159.71     0  03:02      1.56    0.12    0.26
  YS02001790YS02001791 CONDUIT    159.86     0  03:03      1.79    0.17    0.24
  YS02001791YS02001793 CONDUIT    159.86     0  03:03      3.55    0.07    0.16
  YS02001910YS02001907 CONDUIT     48.96     0  03:04      0.49    0.03    0.61
  YS02001786YS02001788 CONDUIT    159.65     0  03:02      1.41    0.31    0.28
  YS02001915YS02001910 CONDUIT     49.00     0  03:01      0.44    0.02    0.40
  YS02001918YS02001915 CONDUIT     17.11     0  03:05      0.44    0.01    0.18
  YS02001923YS02001920 CONDUIT     14.26     0  03:02      0.31    0.01    0.11
  YS02001926YS02001923 CONDUIT     14.22     0  03:02      0.37    0.02    0.10
  YS02001929YS02001926 CONDUIT     14.22     0  03:01      0.38    0.01    0.09
  YS02001920YS02001918 CONDUIT     17.12     0  03:04      0.34    0.02    0.11
  YS02001629YS02163301 CONDUIT     39.04     0  02:42      0.08    0.05    0.64
  YS02001619YS02001622 CONDUIT     31.81     0  02:51      0.54    0.05    0.26
  YS02001622YS02001625 CONDUIT     33.94     0  02:51      0.18    0.02    0.42
  YS02001625YS02001629 CONDUIT     36.19     0  02:42      0.17    0.02    0.41
  YS02163301YS02001633 CONDUIT     35.96     0  02:41      0.09    0.03    0.69
  YS02163601YS02164001 CONDUIT     69.57     0  03:09      0.12    0.06    0.75
  YS02164001YS02001641 CONDUIT     68.44     0  03:09      0.11    0.09    0.73
  YS02001641YS02001644 CONDUIT     67.60     0  03:08      0.12    0.22    0.74
  YS02001647YS02001649 CONDUIT    102.56     0  03:08      0.18    0.05    0.67
  YS02006553YS02006556 CONDUIT    108.55     0  03:03      0.19    0.09    0.70
  YS02006556YS02006558 CONDUIT    108.61     0  03:03      0.18    0.09    0.72
  YSB6556YSB1171       CONDUIT      6.57     0  02:27      0.03    0.01    0.49
  YS02001907YS02006553 CONDUIT    108.41     0  03:03      0.15    0.13    0.79
  YS02006558YS02006561 CONDUIT    158.58     0  03:01      1.92    0.35    0.33
  YS02001633YS02163601 CONDUIT     69.62     0  02:42      0.12    0.07    0.74
  YS02001644YS02001647 CONDUIT    101.48     0  03:10      0.19    0.06    0.65
  YS02001745YS02001748 CONDUIT     35.18     0  03:01      1.16    0.01    0.08
  YS02001748YS02001751 CONDUIT     35.83     0  03:09      0.92    0.02    0.20
  YS02001751YS02001754 CONDUIT     80.79     0  04:36      0.85    0.04    0.41
  YS02001754YS02001757 CONDUIT    154.05     0  04:52      0.33    0.06    0.74
  YS02001882YS02001884 CONDUIT      2.15     0  02:10      0.06    0.00    0.33
  YS02001884YS02001887 CONDUIT      6.70     0  02:10      0.05    0.01    0.43
  YS02001890YS02001895 CONDUIT     59.68     0  02:55      0.20    0.03    0.40
  YS02001895YS02001898 CONDUIT     59.68     0  02:58      0.42    0.10    0.26
  YS02001898YS02001901 CONDUIT     59.75     0  02:57      0.25    0.04    0.34
  YS02001901YS02001904 CONDUIT     59.47     0  03:03      0.21    0.09    0.39
  YS02001904YS02001907 CONDUIT     59.77     0  03:03      0.13    0.02    0.55
  YS02001887YS02001890 CONDUIT     59.90     0  02:55      0.16    0.10    0.48
  YS02001652YS02001649 CONDUIT     56.91     0  04:31      0.28    0.03    0.68
  YS02001655YS02001652 CONDUIT     49.96     0  03:02      0.91    0.02    0.44
  YS02001658YS02001655 CONDUIT     42.32     0  02:55      1.06    0.02    0.21
  YS02001661YS02001658 CONDUIT     42.32     0  02:54      1.18    0.02    0.09
  YS02001664YS02001661 CONDUIT     42.32     0  02:54      0.79    0.01    0.12
  YSB1154YSB6556       CONDUIT      6.52     0  02:23      0.19    0.01    0.38
  YSB1174YSB1171       CONDUIT      6.15     0  02:16      0.03    0.01    0.50
  YSB1171HS02004479    CONDUIT     12.09     0  02:26      0.54    0.01    0.38
  HS02004881HS02006253 CONDUIT     19.41     0  02:25      1.27    0.00    0.24
  YS02001793JiankangQianchi CONDUIT    161.36     0  03:06     10.73    0.01    0.50
  YS02001757CaochengTiaoxuchi CONDUIT    257.99     0  03:08      0.74    0.11    0.48
  WSF200WS02003060     CONDUIT    461.96     0  03:01      1.75    0.10    0.31
  1                    CONDUIT    762.84     0  03:10      3.09    0.27    0.35
  2                    CONDUIT    116.19     0  02:50      5.05    0.28    0.36
  3                    CONDUIT    328.09     0  03:17      8.89    0.52    0.52
  4                    CONDUIT      0.00     0  00:00      0.00    0.00    0.00
  CC-Pump-1            PUMP       200.00     0  02:45              1.00
  CC-Pump-2            PUMP       200.00     0  02:45              1.00
  JK-Pump-1            PUMP       231.17     0  04:27              0.77
  JK-Pump-2            PUMP       300.00     0  00:00              1.00
  XR-Pump-1            PUMP        95.00     0  00:00              1.00
  XR-Pump-2            PUMP        95.00     0  00:00              1.00
  XR-Pump-3            PUMP        95.00     0  00:00              1.00
  XR-Pump-4            PUMP        95.00     0  00:00              1.00
  
  
  ***************************
  Flow Classification Summary
  ***************************
  
  -------------------------------------------------------------------------------------
                      Adjusted    ---------- Fraction of Time in Flow Class ---------- 
                       /Actual         Up    Down  Sub   Sup   Up    Down  Norm  Inlet 
  Conduit               Length    Dry  Dry   Dry   Crit  Crit  Crit  Crit  Ltd   Ctrl  
  -------------------------------------------------------------------------------------
  WS02003066WSF200        1.00   0.04  0.03  0.00  0.00  0.93  0.00  0.00  0.76  0.00
  WS02006287WS02006284    1.00   0.04  0.02  0.00  0.75  0.19  0.00  0.00  0.81  0.00
  WS02006284WS02006280    1.00   0.05  0.00  0.00  0.00  0.00  0.00  0.95  0.00  0.00
  WS02006280WS02006229    1.00   0.05  0.00  0.00  0.00  0.00  0.00  0.95  0.00  0.00
  WS02006229WS02006228    1.00   0.00  0.00  0.00  0.98  0.00  0.00  0.02  0.00  0.00
  WS02006256WS02006235    1.00   0.00  0.00  0.00  1.00  0.00  0.00  0.00  0.00  0.00
  WS02006253WS02006251    1.00   0.03  0.01  0.00  0.95  0.00  0.00  0.00  0.00  0.00
  WS02006252WS02006251    1.00   0.10  0.00  0.00  0.00  0.00  0.90  0.00  0.00  0.00
  WS02006251WS02006249    1.00   0.00  0.00  0.00  1.00  0.00  0.00  0.00  0.34  0.00
  WS02006249WS02006248    1.00   0.00  0.02  0.00  0.88  0.00  0.10  0.00  0.00  0.00
  WS02006248WS02006247    1.00   0.03  0.00  0.00  0.97  0.00  0.00  0.00  0.23  0.00
  WS02006247WS02006245    1.00   0.02  0.00  0.00  0.98  0.00  0.00  0.00  0.00  0.00
  WS02006245WS02006243    1.00   0.01  0.00  0.00  0.93  0.00  0.00  0.05  0.03  0.00
  WS02006243WS02006242    1.00   0.01  0.00  0.00  0.99  0.00  0.00  0.00  0.29  0.00
  WS02006242WS02006240    1.00   0.00  0.00  0.00  1.00  0.00  0.00  0.00  0.00  0.00
  WS02006240WS02006239    1.00   0.00  0.00  0.00  0.95  0.00  0.00  0.05  0.01  0.00
  WS02006239WS02006238    1.00   0.00  0.00  0.00  1.00  0.00  0.00  0.00  0.01  0.00
  WS02006238WS02006235    1.00   0.00  0.00  0.00  1.00  0.00  0.00  0.00  0.00  0.00
  WS02006235WS02006234    1.00   0.00  0.00  0.00  0.94  0.00  0.06  0.00  0.00  0.00
  WS02006234WS02006232    1.00   0.00  0.00  0.00  1.00  0.00  0.00  0.00  0.07  0.00
  WS02006232WS02006231    1.00   0.00  0.00  0.00  0.99  0.00  0.01  0.00  0.00  0.00
  WS02006231WS02006230    1.00   0.00  0.00  0.00  0.43  0.00  0.57  0.00  0.00  0.00
  WS02006230WS02006229    1.00   0.00  0.00  0.00  0.98  0.00  0.00  0.02  0.00  0.00
  WS02006228WS02006109    1.00   0.00  0.00  0.00  1.00  0.00  0.00  0.00  0.00  0.00
  WS02006116WS02004401    1.00   0.03  0.00  0.00  0.97  0.00  0.00  0.00  0.00  0.00
  WS02006115WS02006116    1.00   0.03  0.00  0.00  0.96  0.00  0.00  0.01  0.00  0.00
  WS02006113WS02006111    1.00   0.02  0.00  0.00  0.00  0.98  0.00  0.00  0.15  0.00
  WS02006112WS02006115    1.00   0.03  0.00  0.00  0.97  0.00  0.00  0.00  0.00  0.00
  WS02006111WS02006112    1.00   0.03  0.00  0.00  0.97  0.00  0.00  0.00  0.98  0.00
  WS02006110WS02006113    1.00   0.01  0.01  0.00  0.98  0.00  0.00  0.00  0.00  0.00
  WS02006109WS02006110    1.00   0.00  0.01  0.00  0.98  0.00  0.01  0.00  0.00  0.00
  WS02004411WS02004412    1.00   0.04  0.00  0.00  0.96  0.00  0.00  0.00  0.00  0.00
  WS02004401WS02004402    1.00   0.03  0.00  0.00  0.97  0.00  0.00  0.00  0.00  0.00
  WS02004413WS02003067    1.00   0.05  0.02  0.00  0.00  0.00  0.94  0.00  0.00  0.00
  WS02004412WS02004413    1.00   0.05  0.00  0.00  0.95  0.00  0.00  0.00  0.03  0.00
  WS02004410WS02004411    1.00   0.04  0.00  0.00  0.96  0.00  0.00  0.00  0.03  0.00
  WS02004409WS02004410    1.00   0.04  0.00  0.00  0.96  0.00  0.00  0.00  0.03  0.00
  WS02004407WS02004409    1.00   0.04  0.00  0.00  0.95  0.00  0.00  0.00  0.89  0.00
  WS02004406WS02004407    1.00   0.00  0.04  0.00  0.96  0.00  0.00  0.00  0.00  0.00
  WS02004405WS02004406    1.00   0.00  0.00  0.00  1.00  0.00  0.00  0.00  0.00  0.00
  WS02004404WS02004405    1.00   0.00  0.00  0.00  1.00  0.00  0.00  0.00  0.00  0.00
  WS02004403WS02004404    1.00   0.00  0.03  0.00  0.97  0.00  0.00  0.00  0.01  0.00
  WS02004402WS02004403    1.00   0.03  0.00  0.00  0.97  0.00  0.00  0.00  0.00  0.00
  WS02004139WS02001211    1.00   0.00  0.00  0.00  1.00  0.00  0.00  0.00  0.00  0.00
  WS02004138WS02004139    1.00   0.00  0.00  0.00  0.99  0.01  0.00  0.00  1.00  0.00
  WS02003067WS02003066    1.00   0.06  0.00  0.00  0.93  0.00  0.00  0.00  0.00  0.00
  WS02001213WS02003059    1.00   0.00  0.00  0.00  0.99  0.00  0.00  0.00  0.00  0.00
  WS02001212WS02001213    1.00   0.00  0.00  0.00  0.75  0.00  0.24  0.00  0.00  0.00
  WS02001211WS02001212    1.00   0.00  0.00  0.00  1.00  0.00  0.00  0.00  0.00  0.00
  WS02003072WS02003073    1.00   0.00  0.00  0.00  0.00  0.00  0.00  1.00  0.00  0.00
  WS02003069WS02003072    1.00   0.00  0.00  0.00  0.99  0.01  0.00  0.00  0.28  0.00
  WS02003060WS02003069    1.00   0.00  0.00  0.00  0.98  0.02  0.00  0.00  0.10  0.00
  WS02003059WS02003060    1.00   0.00  0.00  0.00  0.99  0.01  0.00  0.00  0.01  0.00
  HS02004901HS02004770    1.00   0.05  0.00  0.00  0.95  0.00  0.00  0.00  0.03  0.00
  HS02004876HS02004881    1.00   0.03  0.00  0.00  0.97  0.00  0.00  0.00  0.00  0.00
  HS02004870HS02004876    1.00   0.01  0.00  0.00  0.99  0.00  0.00  0.00  0.95  0.00
  HS02004842HS02004848    1.00   0.00  0.05  0.00  0.95  0.00  0.00  0.00  0.71  0.00
  HS02004837HS02004842    1.00   0.00  0.00  0.00  0.99  0.01  0.00  0.00  0.11  0.00
  HS02004830HS02004837    1.00   0.00  0.00  0.00  1.00  0.00  0.00  0.00  0.99  0.00
  HS02004824HS02004830    1.00   0.00  0.00  0.00  1.00  0.00  0.00  0.00  0.00  0.00
  HS02004817HS02004824    1.00   0.00  0.00  0.00  1.00  0.00  0.00  0.00  1.00  0.00
  HS02004770HS02004777    1.00   0.00  0.05  0.00  0.95  0.00  0.00  0.00  0.08  0.00
  HS02004799HS02004480    1.00   0.00  0.03  0.00  0.93  0.00  0.03  0.00  0.00  0.00
  HS02004792HS02004799    1.00   0.00  0.00  0.00  0.98  0.02  0.00  0.00  0.98  0.00
  HS02004788HS02004792    1.00   0.00  0.00  0.00  0.99  0.01  0.00  0.00  0.98  0.00
  HS02004785HS02004788    1.00   0.00  0.00  0.00  1.00  0.00  0.00  0.00  0.00  0.00
  HS02004777HS02004785    1.00   0.00  0.00  0.00  1.00  0.00  0.00  0.00  0.22  0.00
  HS02004480HS02004478    1.00   0.06  0.00  0.00  0.77  0.00  0.00  0.18  0.00  0.00
  HS02004479HS02004480    1.00   0.03  0.00  0.00  0.97  0.00  0.00  0.00  0.17  0.00
  HS02004862HS02004870    1.00   0.00  0.00  0.00  1.00  0.00  0.00  0.00  0.05  0.00
  HS02004848HS02004852    1.00   0.05  0.00  0.00  0.95  0.00  0.00  0.00  0.69  0.00
  HS02004856HS02004862    1.00   0.00  0.08  0.00  0.92  0.00  0.00  0.00  0.73  0.00
  HS02004852HS02004856    1.00   0.05  0.01  0.00  0.94  0.00  0.00  0.00  0.82  0.00
  HS02004802HS02004478    1.00   0.05  0.01  0.00  0.94  0.00  0.00  0.00  0.00  0.00
  HS02004478WS02006287    1.00   0.06  0.00  0.00  0.94  0.00  0.00  0.00  0.81  0.00
  HS02004817HS02004807    1.00   0.00  0.05  0.00  0.95  0.00  0.00  0.00  0.00  0.00
  HS02004807HS02004802    1.00   0.05  0.00  0.00  0.95  0.00  0.00  0.00  0.01  0.00
  YS02001759YS02001757    1.00   0.00  0.00  0.00  1.00  0.00  0.00  0.00  0.17  0.00
  YS02001762YS02001759    1.00   0.00  0.00  0.00  1.00  0.00  0.00  0.00  0.05  0.00
  YS02001765YS02001762    1.00   0.00  0.00  0.00  1.00  0.00  0.00  0.00  0.24  0.00
  YS02001770YS02001767    1.00   0.00  0.00  0.00  1.00  0.00  0.00  0.00  0.00  0.00
  YS02001774YS02001770    1.00   0.00  0.06  0.00  0.94  0.00  0.00  0.00  0.06  0.00
  YS02001779YS02001774    1.00   0.00  0.00  0.00  1.00  0.00  0.00  0.00  0.28  0.00
  YS02001649YS02001757    1.00   0.00  0.00  0.00  1.00  0.00  0.00  0.00  0.20  0.00
  YS02001767YS02001765    1.00   0.00  0.00  0.00  1.00  0.00  0.00  0.00  0.01  0.00
  YS02006561YS02001783    1.00   0.08  0.00  0.00  0.00  0.92  0.00  0.00  0.72  0.00
  YS02001783YS02001784    1.00   0.00  0.08  0.00  0.92  0.00  0.00  0.00  0.13  0.00
  YS02001784YS02001785    1.00   0.00  0.00  0.00  1.00  0.00  0.00  0.00  0.26  0.00
  YS02001788YS02001790    1.00   0.00  0.00  0.00  0.08  0.92  0.00  0.00  0.99  0.00
  YS02001790YS02001791    1.00   0.00  0.00  0.00  0.02  0.98  0.00  0.00  0.33  0.00
  YS02001791YS02001793    1.00   0.00  0.00  0.00  0.00  1.00  0.00  0.00  0.00  0.00
  YS02001910YS02001907    1.00   0.00  0.00  0.00  0.97  0.00  0.00  0.03  0.13  0.00
  YS02001786YS02001788    1.00   0.00  0.00  0.00  0.10  0.90  0.00  0.00  0.00  0.00
  YS02001915YS02001910    1.00   0.00  0.00  0.00  0.99  0.01  0.00  0.00  0.25  0.00
  YS02001918YS02001915    1.00   0.00  0.01  0.00  0.98  0.02  0.00  0.00  0.80  0.00
  YS02001923YS02001920    1.00   0.00  0.00  0.00  1.00  0.00  0.00  0.00  1.00  0.00
  YS02001926YS02001923    1.00   0.00  0.04  0.00  0.00  0.00  0.96  0.00  0.00  0.00
  YS02001929YS02001926    1.00   0.00  0.05  0.00  0.95  0.00  0.00  0.00  0.86  0.00
  YS02001920YS02001918    1.00   0.00  0.01  0.00  0.99  0.00  0.00  0.00  0.00  0.00
  YS02001629YS02163301    1.00   0.07  0.00  0.00  0.92  0.00  0.00  0.00  0.00  0.00
  YS02001619YS02001622    1.00   0.05  0.00  0.00  0.95  0.00  0.00  0.00  0.00  0.00
  YS02001622YS02001625    1.00   0.05  0.00  0.00  0.95  0.00  0.00  0.00  0.14  0.00
  YS02001625YS02001629    1.00   0.05  0.03  0.00  0.90  0.00  0.02  0.00  0.00  0.00
  YS02163301YS02001633    1.00   0.00  0.07  0.00  0.93  0.00  0.00  0.00  0.00  0.00
  YS02163601YS02164001    1.00   0.00  0.04  0.00  0.96  0.00  0.00  0.00  0.00  0.00
  YS02164001YS02001641    1.00   0.01  0.03  0.00  0.96  0.00  0.00  0.00  0.07  0.00
  YS02001641YS02001644    1.00   0.00  0.01  0.00  0.99  0.00  0.00  0.00  0.00  0.00
  YS02001647YS02001649    1.00   0.00  0.08  0.00  0.92  0.00  0.00  0.00  0.01  0.00
  YS02006553YS02006556    1.00   0.02  0.00  0.00  0.98  0.00  0.00  0.00  0.03  0.00
  YS02006556YS02006558    1.00   0.00  0.00  0.00  1.00  0.00  0.00  0.00  0.00  0.00
  YSB6556YSB1171          1.00   0.03  0.02  0.00  0.95  0.00  0.00  0.00  0.00  0.00
  YS02001907YS02006553    1.00   0.00  0.02  0.00  0.97  0.00  0.00  0.00  0.00  0.00
  YS02006558YS02006561    1.00   0.08  0.00  0.00  0.00  0.92  0.00  0.00  0.71  0.00
  YS02001633YS02163601    1.00   0.00  0.01  0.00  0.99  0.00  0.00  0.00  0.20  0.00
  YS02001644YS02001647    1.00   0.00  0.08  0.00  0.92  0.00  0.00  0.00  0.00  0.00
  YS02001745YS02001748    1.00   0.00  0.00  0.00  0.00  0.00  0.00  1.00  0.00  0.00
  YS02001748YS02001751    1.00   0.00  0.00  0.00  0.97  0.03  0.00  0.00  0.90  0.00
  YS02001751YS02001754    1.00   0.00  0.00  0.00  0.91  0.00  0.00  0.09  0.03  0.00
  YS02001754YS02001757    1.00   0.00  0.00  0.00  0.99  0.01  0.00  0.00  0.28  0.00
  YS02001882YS02001884    1.00   0.07  0.00  0.00  0.93  0.00  0.00  0.00  0.00  0.00
  YS02001884YS02001887    1.00   0.04  0.01  0.00  0.95  0.00  0.00  0.00  0.00  0.00
  YS02001890YS02001895    1.00   0.00  0.07  0.00  0.93  0.00  0.00  0.00  0.00  0.00
  YS02001895YS02001898    1.00   0.07  0.00  0.00  0.92  0.00  0.01  0.00  0.00  0.00
  YS02001898YS02001901    1.00   0.07  0.01  0.00  0.92  0.00  0.00  0.00  0.02  0.00
  YS02001901YS02001904    1.00   0.07  0.00  0.00  0.93  0.00  0.00  0.00  0.00  0.00
  YS02001904YS02001907    1.00   0.00  0.07  0.00  0.93  0.00  0.00  0.00  0.00  0.00
  YS02001887YS02001890    1.00   0.00  0.00  0.00  0.97  0.00  0.03  0.00  0.00  0.00
  YS02001652YS02001649    1.00   0.00  0.00  0.00  1.00  0.00  0.00  0.00  0.27  0.00
  YS02001655YS02001652    1.00   0.00  0.00  0.00  0.91  0.00  0.00  0.09  0.03  0.00
  YS02001658YS02001655    1.00   0.00  0.06  0.00  0.91  0.03  0.00  0.00  0.78  0.00
  YS02001661YS02001658    1.00   0.06  0.00  0.00  0.00  0.93  0.00  0.00  0.72  0.00
  YS02001664YS02001661    1.00   0.05  0.00  0.00  0.95  0.00  0.00  0.00  0.86  0.00
  YSB1154YSB6556          1.00   0.05  0.00  0.00  0.95  0.00  0.00  0.00  0.02  0.00
  YSB1174YSB1171          1.00   0.03  0.01  0.00  0.96  0.00  0.00  0.00  0.00  0.00
  YSB1171HS02004479       1.00   0.03  0.00  0.00  0.97  0.00  0.00  0.00  0.13  0.00
  HS02004881HS02006253    1.00   0.04  0.00  0.00  0.74  0.01  0.00  0.21  0.52  0.00
  YS02001793JiankangQianchi    1.00   0.00  0.00  0.00  0.06  0.94  0.00  0.00  0.08  0.00
  YS02001757CaochengTiaoxuchi    1.00   0.00  0.10  0.00  0.90  0.00  0.00  0.00  0.00  0.00
  WSF200WS02003060        1.00   0.00  0.04  0.00  0.83  0.13  0.00  0.00  0.53  0.00
  1                       1.00   0.00  0.00  0.00  0.00  1.00  0.00  0.00  0.38  0.00
  2                       1.00   0.72  0.00  0.00  0.00  0.28  0.00  0.00  0.05  0.00
  3                       1.00   0.40  0.00  0.00  0.00  0.59  0.00  0.00  0.38  0.00
  4                       1.00   1.00  0.00  0.00  0.00  0.00  0.00  0.00  0.00  0.00
  
  
  *************************
  Conduit Surcharge Summary
  *************************
  
  ----------------------------------------------------------------------------
                                                           Hours        Hours 
                         --------- Hours Full --------   Above Full   Capacity
  Conduit                Both Ends  Upstream  Dnstream   Normal Flow   Limited
  ----------------------------------------------------------------------------
  WS02006229WS02006228        0.84      1.01      0.84      3.05         0.84
  WS02006256WS02006235        5.50      5.50      7.38      2.10         0.01
  WS02006252WS02006251        0.82      0.82      1.66      1.40         0.01
  WS02006251WS02006249        0.01      0.01      0.01      0.82         0.01
  WS02006249WS02006248        0.01      0.01      0.01      3.23         0.01
  WS02006247WS02006245        0.01      0.01      0.01      4.14         0.01
  WS02006243WS02006242        0.01      0.01      0.58      0.01         0.01
  WS02006242WS02006240        0.01      0.01      0.94      1.63         0.01
  WS02006240WS02006239        0.22      0.22      0.30      0.09         0.01
  WS02006239WS02006238        0.78      0.79      0.83      0.22         0.16
  WS02006238WS02006235        0.64      0.64      1.00      0.01         0.01
  WS02006235WS02006234        0.01      0.01      0.44      5.49         0.01
  WS02006234WS02006232        0.23      0.23      1.15      0.01         0.01
  WS02006232WS02006231        0.01      0.01      1.15      0.01         0.01
  WS02006231WS02006230        0.01      0.01      0.01      5.54         0.01
  WS02006230WS02006229        1.74      2.40      1.74      5.67         1.74
  WS02006228WS02006109        0.95      1.48      0.95      4.40         0.95
  WS02006111WS02006112        0.01      0.01      3.43      0.01         0.01
  WS02006110WS02006113        0.01      0.01      1.10      0.01         0.01
  WS02006109WS02006110        0.01      0.01      1.48      0.01         0.01
  WS02004404WS02004405        0.01      0.01      0.01      5.42         0.01
  WS02003072WS02003073        0.01      0.01      0.01      3.98         0.01
  YS02001793JiankangQianchi        0.01      0.01      0.09      0.01         0.01
  
  
  ***************
  Pumping Summary
  ***************
  
  ---------------------------------------------------------------------------------------------------------
                                                  Min       Avg       Max     Total     Power    % Time Off
                        Percent   Number of      Flow      Flow      Flow    Volume     Usage    Pump Curve
  Pump                 Utilized   Start-Ups       LPS       LPS       LPS  10^6 ltr     Kw-hr    Low   High
  ---------------------------------------------------------------------------------------------------------
  CC-Pump-1               61.26           4      0.00    121.25    200.00     2.034      9.21    0.0  100.0
  CC-Pump-2               57.00           3      0.00    120.84    200.00     1.900      8.65    0.0  100.0
  JK-Pump-1               80.84           7      0.00     77.18    231.17     1.268     24.60    0.0    0.0
  JK-Pump-2               87.23           6      0.00     84.44    300.00     1.541     29.27    0.0    0.0
  XR-Pump-1               91.47           7      0.00     69.41     95.00     1.796     39.85    0.0    0.0
  XR-Pump-2               78.71           9      0.00     56.03     95.00     1.283     28.96    0.0    0.0
  XR-Pump-3               97.87           4      0.00     76.12     95.00     2.166     48.69    0.0    0.0
  XR-Pump-4               91.48           7      0.00     65.91     95.00     1.767     40.45    0.0    0.0
  

  Analysis begun on:  Fri Dec 24 13:41:15 2021
  Analysis ended on:  Fri Dec 24 13:41:18 2021
  Total elapsed time: 00:00:03