
  EPA STORM WATER MANAGEMENT MODEL - VERSION 5.1 (Build 5.3.0.dev0)
  --------------------------------------------------------------

  WARNING 04: minimum elevation drop used for Conduit WS02004404WS02004405
  WARNING 03: negative offset ignored for Link YS02001904YS02001907
  
  *********************************************************
  NOTE: The summary statistics displayed in this report are
  based on results found at every computational time step,  
  not just on results from each reporting time step.
  *********************************************************
  
  ****************
  Analysis Options
  ****************
  Flow Units ............... LPS
  Process Models:
    Rainfall/Runoff ........ YES
    RDII ................... NO
    Snowmelt ............... NO
    Groundwater ............ NO
    Flow Routing ........... YES
    Ponding Allowed ........ NO
    Water Quality .......... NO
  Infiltration Method ...... HORTON
  Flow Routing Method ...... DYNWAVE
  Surcharge Method ......... EXTRAN
  Starting Date ............ 08/28/2015 08:00:00
  Ending Date .............. 08/28/2015 15:50:00
  Antecedent Dry Days ...... 8.0
  Report Time Step ......... 00:01:00
  Wet Time Step ............ 00:01:00
  Dry Time Step ............ 00:01:00
  Routing Time Step ........ 5.00 sec
  Variable Time Step ....... YES
  Maximum Trials ........... 8
  Number of Threads ........ 4
  Head Tolerance ........... 0.001500 m
  
  
  **************************        Volume         Depth
  Runoff Quantity Continuity     hectare-m            mm
  **************************     ---------       -------
  Total Precipitation ......         2.495         5.462
  Evaporation Loss .........         0.000         0.000
  Infiltration Loss ........         0.624         1.367
  Surface Runoff ...........         1.004         2.198
  Final Storage ............         0.867         1.898
  Continuity Error (%) .....        -0.018
  
  
  **************************        Volume        Volume
  Flow Routing Continuity        hectare-m      10^6 ltr
  **************************     ---------     ---------
  Dry Weather Inflow .......         0.616         6.165
  Wet Weather Inflow .......         1.003        10.034
  Groundwater Inflow .......         0.000         0.000
  RDII Inflow ..............         0.000         0.000
  External Inflow ..........         0.102         1.024
  External Outflow .........         1.562        15.616
  Flooding Loss ............         0.091         0.907
  Evaporation Loss .........         0.000         0.000
  Exfiltration Loss ........         0.000         0.000
  Initial Stored Volume ....         0.076         0.761
  Final Stored Volume ......         0.253         2.534
  Continuity Error (%) .....        -5.971
  
  
  *************************
  Highest Continuity Errors
  *************************
  Node JK-storage (-33.38%)
  Node HS02004842 (30.09%)
  Node YS02001884 (24.57%)
  Node YSB1171 (7.64%)
  Node YS02001774 (7.20%)
  
  
  ***************************
  Time-Step Critical Elements
  ***************************
  Link WS02006252WS02006251 (61.41%)
  Link 3 (25.91%)
  Link WS02006238WS02006235 (6.15%)
  Link WS02006280WS02006229 (1.87%)
  
  
  ********************************
  Highest Flow Instability Indexes
  ********************************
  Link WS02006113WS02006111 (40)
  Link WS02006111WS02006112 (23)
  Link YS02001754YS02001757 (3)
  Link YS02001652YS02001649 (2)
  Link WS02006110WS02006113 (2)
  
  
  *************************
  Routing Time Step Summary
  *************************
  Minimum Time Step           :     0.40 sec
  Average Time Step           :     0.87 sec
  Maximum Time Step           :     5.00 sec
  Percent in Steady State     :    -0.00
  Average Iterations per Step :     2.02
  Percent Not Converging      :     0.13
  
  
  ***************************
  Subcatchment Runoff Summary
  ***************************
  
  ------------------------------------------------------------------------------------------------------------------------------
                            Total      Total      Total      Total     Imperv       Perv      Total       Total     Peak  Runoff
                           Precip      Runon       Evap      Infil     Runoff     Runoff     Runoff      Runoff   Runoff   Coeff
  Subcatchment                 mm         mm         mm         mm         mm         mm         mm    10^6 ltr      LPS
  ------------------------------------------------------------------------------------------------------------------------------
  sub0                       5.46       0.00       0.00       0.38       3.81       0.00       3.81        0.00     1.22   0.698
  sub1                       5.46       0.00       0.00       0.60       3.61       0.00       3.61        0.02     6.40   0.660
  sub2                       5.46       0.00       0.00       2.02       2.54       0.00       2.54        0.02     5.67   0.464
  sub3                       5.46       0.00       0.00       2.02       2.50       0.00       2.50        0.06    11.67   0.458
  sub4                       5.46       0.00       0.00       0.60       3.47       0.00       3.47        0.07    13.12   0.635
  sub5                       5.46       0.00       0.00       0.38       3.77       0.00       3.77        0.04    11.38   0.690
  sub7                       5.46       0.00       0.00       0.49       3.72       0.00       3.72        0.01     4.02   0.680
  sub8                       5.46       0.00       0.00       0.49       3.71       0.00       3.71        0.02     7.09   0.679
  sub9                       5.46       0.00       0.00       0.49       3.70       0.00       3.70        0.02     5.25   0.678
  sub10                      5.46       0.00       0.00       0.44       3.73       0.00       3.73        0.04    11.36   0.684
  sub11                      5.46       0.00       0.00       0.44       3.75       0.00       3.75        0.04    13.33   0.687
  sub12                      5.46       0.00       0.00       0.71       3.56       0.00       3.56        0.03    11.29   0.652
  sub14                      5.46       0.00       0.00       0.49       3.70       0.00       3.70        0.04    10.26   0.678
  sub15                      5.46       0.00       0.00       1.64       2.85       0.00       2.85        0.05    13.93   0.521
  sub16                      5.46       0.00       0.00       1.80       2.74       0.00       2.74        0.03     9.93   0.502
  sub17                      5.46       0.00       0.00       1.75       2.78       0.00       2.78        0.02     8.02   0.509
  sub22                      5.46       0.00       0.00       2.35       2.32       0.00       2.32        0.15    45.61   0.426
  sub23                      5.46       0.00       0.00       2.02       2.57       0.00       2.57        0.12    38.85   0.471
  sub60                      5.46       0.00       0.00       0.66       2.43       0.00       2.43        0.74    67.28   0.446
  sub61                      5.46       0.00       0.00       0.93       2.62       0.00       2.62        0.81    84.42   0.480
  sub62                      5.46       0.00       0.00       0.44       2.81       0.00       2.81        0.86    86.35   0.514
  sub63                      5.46       0.00       0.00       1.58       2.34       0.00       2.34        0.71    78.70   0.429
  sub64                      5.46       0.00       0.00       0.82       2.33       0.00       2.33        0.71    63.86   0.426
  sub65                      5.46       0.00       0.00       0.71       2.35       0.00       2.35        0.72    64.75   0.431
  sub66                      5.46       0.00       0.00       1.58       2.03       0.00       2.03        0.62    58.67   0.373
  sub67                      5.46       0.00       0.00       0.44       3.11       0.00       3.11        0.96   110.55   0.569
  sub68                      5.46       0.00       0.00       0.76       2.80       0.00       2.80        0.86    93.27   0.512
  sub69                      5.46       0.00       0.00       0.82       3.04       0.00       3.04        0.71    92.37   0.557
  sub70                      5.46       3.10       0.00       2.91       3.68       0.00       3.68        0.84    73.56   0.429
  sub71                      5.46       0.00       0.00       0.44       2.68       0.00       2.68        0.63    60.33   0.490
  sub72                      5.46       0.00       0.00       0.38       1.86       0.00       1.86        0.38    28.02   0.340
  sub73                      5.46       3.58       0.00       3.07       3.70       0.00       3.70        0.87    62.93   0.409
  sub74                      5.46       0.00       0.00       4.10       0.92       0.00       0.92        0.37    51.48   0.168
  
  
  ******************
  Node Depth Summary
  ******************
  
  ---------------------------------------------------------------------------------
                                 Average  Maximum  Maximum  Time of Max    Reported
                                   Depth    Depth      HGL   Occurrence   Max Depth
  Node                 Type       Meters   Meters   Meters  days hr:min      Meters
  ---------------------------------------------------------------------------------
  WS02001211           JUNCTION     0.61     0.77     5.61     0  04:01        0.77
  WS02001212           JUNCTION     0.35     0.48     5.54     0  02:43        0.48
  WS02001213           JUNCTION     0.59     0.73     5.49     0  02:43        0.73
  WS02003069           JUNCTION     0.42     0.55     5.14     0  02:44        0.55
  WS02003072           JUNCTION     0.49     0.62     4.99     0  02:44        0.62
  WS02003073           JUNCTION     0.29     0.38     4.44     0  02:45        0.38
  WS02003060           JUNCTION     0.37     0.49     5.42     0  02:43        0.49
  WS02003066           JUNCTION     0.23     0.29     5.84     0  02:41        0.29
  WS02003059           JUNCTION     0.65     0.78     5.47     0  02:44        0.78
  WS02003067           JUNCTION     0.57     0.69     6.01     0  02:41        0.69
  WS02004401           JUNCTION     0.67     0.83     6.83     0  02:37        0.83
  WS02004402           JUNCTION     0.70     0.85     6.81     0  02:38        0.85
  WS02004403           JUNCTION     0.72     0.87     6.80     0  02:37        0.87
  WS02004404           JUNCTION     0.80     0.94     6.79     0  02:37        0.94
  WS02004406           JUNCTION     0.80     0.94     6.77     0  02:38        0.94
  WS02004409           JUNCTION     0.49     0.64     6.41     0  02:40        0.64
  WS02004410           JUNCTION     0.51     0.66     6.38     0  02:40        0.66
  WS02004411           JUNCTION     0.52     0.67     6.35     0  02:40        0.67
  WS02004412           JUNCTION     0.54     0.68     6.32     0  02:41        0.68
  WS02004413           JUNCTION     0.70     0.84     6.31     0  02:41        0.84
  WS02004405           JUNCTION     0.79     0.94     6.79     0  02:38        0.94
  WS02006109           JUNCTION     0.75     0.95     7.57     0  02:33        0.95
  WS02006110           JUNCTION     0.75     0.91     7.49     0  02:33        0.91
  WS02006111           JUNCTION     0.22     0.28     6.99     0  02:34        0.28
  WS02006112           JUNCTION     0.84     1.02     6.90     0  02:37        1.02
  WS02006113           JUNCTION     0.34     0.45     7.34     0  02:33        0.44
  WS02006115           JUNCTION     0.56     0.73     6.86     0  02:37        0.72
  WS02006116           JUNCTION     0.64     0.80     6.84     0  02:37        0.80
  WS02006230           JUNCTION     0.72     1.00     7.74     0  02:33        1.00
  WS02006231           JUNCTION     0.48     0.67     7.80     0  02:33        0.67
  WS02006232           JUNCTION     0.62     0.80     7.84     0  02:33        0.80
  WS02006234           JUNCTION     0.54     0.74     7.90     0  02:33        0.74
  WS02006235           JUNCTION     0.58     0.78     7.94     0  02:33        0.78
  WS02006238           JUNCTION     0.60     0.81     7.95     0  02:33        0.81
  WS02006240           JUNCTION     0.51     0.72     8.02     0  02:32        0.72
  WS02006242           JUNCTION     0.56     0.79     8.06     0  02:32        0.78
  WS02006243           JUNCTION     0.45     0.67     8.09     0  02:32        0.67
  WS02006245           JUNCTION     0.43     0.64     8.12     0  03:33        0.64
  WS02006247           JUNCTION     0.45     0.65     8.15     0  03:33        0.65
  WS02006248           JUNCTION     0.40     0.59     8.17     0  03:33        0.59
  WS02006249           JUNCTION     0.43     0.60     8.20     0  03:34        0.60
  WS02006239           JUNCTION     0.56     0.78     7.99     0  02:32        0.78
  WS02006251           JUNCTION     0.42     0.62     8.29     0  03:34        0.62
  WS02006252           JUNCTION     0.38     0.58     8.83     0  02:50        0.58
  WS02006253           JUNCTION     0.45     0.65     8.29     0  03:33        0.65
  WS02006256           JUNCTION     1.01     1.20     8.14     0  03:29        1.20
  WS02004138           JUNCTION     0.13     0.19     7.44     0  01:40        0.19
  WS02004407           JUNCTION     0.22     0.29     6.60     0  02:38        0.29
  WS02006228           JUNCTION     0.75     0.99     7.64     0  02:33        0.99
  WS02006229           JUNCTION     0.72     0.98     7.68     0  02:33        0.98
  WS02006280           JUNCTION     0.05     0.14     8.41     0  02:20        0.14
  WS02006284           JUNCTION     0.35     0.47     8.87     0  02:20        0.47
  WS02006287           JUNCTION     0.08     0.20     9.15     0  02:20        0.20
  WSF200               JUNCTION     0.22     0.30     5.53     0  02:40        0.30
  HS02004901           JUNCTION     0.11     0.22    10.04     0  02:18        0.22
  HS02004881           JUNCTION     0.01     0.02     9.05     0  02:19        0.02
  HS02004876           JUNCTION     0.03     0.10     9.13     0  02:19        0.10
  HS02004870           JUNCTION     0.01     0.04     9.32     0  02:20        0.04
  HS02004862           JUNCTION     0.01     0.04     9.43     0  02:21        0.04
  HS02004856           JUNCTION     0.07     0.10     9.53     0  02:20        0.10
  HS02004852           JUNCTION     0.01     0.02     9.54     0  02:21        0.02
  HS02004848           JUNCTION     0.01     0.02     9.63     0  02:19        0.02
  HS02004842           JUNCTION     0.33     0.36     9.63     0  02:19        0.36
  HS02004837           JUNCTION     0.03     0.04     9.62     0  02:19        0.04
  HS02004830           JUNCTION     0.04     0.06     9.53     0  02:20        0.06
  HS02004824           JUNCTION     0.02     0.04     9.44     0  02:23        0.04
  HS02004817           JUNCTION     0.42     0.51     9.36     0  02:20        0.51
  HS02004807           JUNCTION     0.11     0.19     9.36     0  02:20        0.19
  HS02004802           JUNCTION     0.15     0.23     9.35     0  02:20        0.23
  HS02004799           JUNCTION     0.10     0.24     9.45     0  02:18        0.24
  HS02004792           JUNCTION     0.02     0.09     9.61     0  02:17        0.09
  HS02004788           JUNCTION     0.02     0.07     9.96     0  02:18        0.07
  HS02004785           JUNCTION     0.03     0.12    10.03     0  02:18        0.12
  HS02004777           JUNCTION     0.13     0.24    10.04     0  02:18        0.24
  HS02004770           JUNCTION     0.10     0.21    10.04     0  02:18        0.21
  HS02004480           JUNCTION     0.06     0.18     9.42     0  02:18        0.18
  HS02004479           JUNCTION     0.10     0.22     9.43     0  02:18        0.22
  HS02004478           JUNCTION     0.05     0.12     9.34     0  02:19        0.12
  YS02001745           JUNCTION     0.08     0.11     7.63     0  03:01        0.11
  YS02001748           JUNCTION     0.20     0.37     7.44     0  04:09        0.37
  YS02001751           JUNCTION     0.38     0.56     7.44     0  03:28        0.56
  YS02001754           JUNCTION     0.63     0.84     7.45     0  04:08        0.84
  YS02001762           JUNCTION     0.83     1.01     7.41     0  03:07        1.01
  YS02001765           JUNCTION     0.78     0.97     7.42     0  03:07        0.96
  YS02001767           JUNCTION     0.74     0.93     7.42     0  03:06        0.93
  YS02001770           JUNCTION     0.74     0.91     7.41     0  03:07        0.91
  YS02001774           JUNCTION     0.81     0.99     7.41     0  03:08        0.99
  YS02001779           JUNCTION     0.56     0.73     7.42     0  03:06        0.73
  YS02001882           JUNCTION     0.27     0.43     7.14     0  02:58        0.43
  YS02001884           JUNCTION     0.37     0.53     7.14     0  02:58        0.52
  YS02001759           JUNCTION     0.86     1.05     7.41     0  03:03        1.04
  YS02001887           JUNCTION     0.44     0.60     7.14     0  02:58        0.60
  YS02001890           JUNCTION     0.47     0.63     7.14     0  02:58        0.63
  YS02001898           JUNCTION     0.24     0.39     7.12     0  02:59        0.39
  YS02001901           JUNCTION     0.36     0.52     7.12     0  02:59        0.52
  YS02001904           JUNCTION     0.34     0.49     7.12     0  03:00        0.49
  YS02001907           JUNCTION     0.67     0.83     7.12     0  02:59        0.83
  YS02001910           JUNCTION     0.46     0.62     7.12     0  02:59        0.62
  YS02001915           JUNCTION     0.26     0.40     7.12     0  02:59        0.40
  YS02001918           JUNCTION     0.07     0.09     7.16     0  03:03        0.09
  YS02001619           JUNCTION     0.34     0.50     7.43     0  03:05        0.50
  YS02001629           JUNCTION     0.69     0.87     7.42     0  03:03        0.87
  YS02001641           JUNCTION     0.79     0.98     7.42     0  03:02        0.98
  YS02001644           JUNCTION     0.80     0.99     7.42     0  03:31        0.99
  YS02001652           JUNCTION     0.64     0.84     7.44     0  03:26        0.84
  YS02001655           JUNCTION     0.41     0.60     7.45     0  03:28        0.60
  YS02001920           JUNCTION     0.17     0.20     7.20     0  03:03        0.20
  YS02001923           JUNCTION     0.06     0.08     7.34     0  03:02        0.08
  YS02001926           JUNCTION     0.13     0.17     7.61     0  03:01        0.17
  YS02001929           JUNCTION     0.06     0.08     7.77     0  03:01        0.08
  YS02001658           JUNCTION     0.14     0.29     7.43     0  03:27        0.29
  YS02001661           JUNCTION     0.14     0.19     7.59     0  02:50        0.19
  YS02001664           JUNCTION     0.06     0.11     8.03     0  02:49        0.11
  YS02001622           JUNCTION     0.36     0.51     7.42     0  03:03        0.51
  YS02001633           JUNCTION     0.78     0.97     7.43     0  03:05        0.97
  YS02001649           JUNCTION     0.84     1.02     7.41     0  03:01        1.02
  YS02001757           JUNCTION     0.96     1.15     7.41     0  03:05        1.15
  YS02001895           JUNCTION     0.24     0.39     7.13     0  02:58        0.39
  YS02001625           JUNCTION     0.64     0.82     7.43     0  03:04        0.82
  YS02163301           JUNCTION     0.72     0.91     7.42     0  03:06        0.90
  YS02163601           JUNCTION     0.83     1.05     7.45     0  03:28        1.03
  YS02164001           JUNCTION     0.77     0.96     7.42     0  03:02        0.96
  YS02001647           JUNCTION     0.63     0.81     7.42     0  03:05        0.80
  YSB1154              JUNCTION     0.24     0.37     9.43     0  02:18        0.37
  YSB6556              JUNCTION     0.13     0.26     9.43     0  02:18        0.26
  YSB1174              JUNCTION     0.19     0.32     9.43     0  02:18        0.32
  YSB1171              JUNCTION     0.39     0.52     9.43     0  02:18        0.52
  YS02006553           JUNCTION     0.68     0.84     7.12     0  02:59        0.84
  YS02006561           JUNCTION     0.13     0.21     6.87     0  03:00        0.21
  YS02006556           JUNCTION     0.65     0.81     7.12     0  03:00        0.81
  YS02006558           JUNCTION     0.69     0.85     7.12     0  03:00        0.85
  YS02001783           JUNCTION     0.23     0.38     6.52     0  03:00        0.38
  YS02001784           JUNCTION     0.26     0.40     6.47     0  02:59        0.40
  YS02001786           JUNCTION     0.22     0.34     6.37     0  03:00        0.34
  YS02001788           JUNCTION     0.16     0.26     6.23     0  03:00        0.26
  YS02001790           JUNCTION     0.20     0.31     5.96     0  03:00        0.31
  YS02001791           JUNCTION     0.13     0.20     5.67     0  03:00        0.20
  YS02001793           JUNCTION     0.08     0.14     4.97     0  03:01        0.13
  WS02004139           JUNCTION     0.55     0.72     5.63     0  04:00        0.72
  WSC                  OUTFALL      0.29     0.38     1.05     0  02:46        0.38
  3                    OUTFALL      0.07     0.20     6.20     0  03:29        0.20
  4                    OUTFALL      0.02     0.10     7.10     0  03:34        0.10
  5                    OUTFALL      0.00     0.00     5.00     0  00:00        0.00
  JK-storage           STORAGE      0.34     3.02     3.82     0  00:20        3.02
  CC-storage           STORAGE      0.20     0.33     7.33     0  04:06        0.33
  XR-storage           STORAGE      6.92     7.72     5.72     0  03:17        7.72
  
  
  *******************
  Node Inflow Summary
  *******************
  
  -------------------------------------------------------------------------------------------------
                                  Maximum  Maximum                  Lateral       Total        Flow
                                  Lateral    Total  Time of Max      Inflow      Inflow     Balance
                                   Inflow   Inflow   Occurrence      Volume      Volume       Error
  Node                 Type           LPS      LPS  days hr:min    10^6 ltr    10^6 ltr     Percent
  -------------------------------------------------------------------------------------------------
  WS02001211           JUNCTION      7.35   381.82     0  04:00       0.207        5.82       0.532
  WS02001212           JUNCTION      0.00   378.09     0  04:01           0        5.79       0.269
  WS02001213           JUNCTION      0.00   377.10     0  04:01           0        5.78       0.384
  WS02003069           JUNCTION      0.32   863.57     0  02:44     0.00902        13.1       0.224
  WS02003072           JUNCTION      0.00   863.65     0  02:44           0        13.1       0.275
  WS02003073           JUNCTION      1.82   865.94     0  02:45      0.0514        13.1       0.308
  WS02003060           JUNCTION     16.53   862.76     0  02:43       0.466        13.1       0.216
  WS02003066           JUNCTION      0.00   499.21     0  02:41           0        6.95       0.072
  WS02003059           JUNCTION      0.00   377.33     0  04:02           0        5.76       0.637
  WS02003067           JUNCTION      0.00   499.14     0  02:41           0        6.96       0.147
  WS02004401           JUNCTION      0.00   510.14     0  02:36           0        7.22       0.334
  WS02004402           JUNCTION      0.00   508.04     0  02:36           0         7.2       0.311
  WS02004403           JUNCTION      0.00   507.24     0  02:37           0        7.17       0.280
  WS02004404           JUNCTION      0.16   507.01     0  02:38     0.00457        7.16       0.208
  WS02004406           JUNCTION      0.00   507.17     0  02:37           0        7.12       0.505
  WS02004409           JUNCTION      0.00   506.27     0  02:38           0        7.08       0.274
  WS02004410           JUNCTION      0.00   503.34     0  02:39           0        7.06       0.303
  WS02004411           JUNCTION      0.00   501.21     0  02:39           0        7.04       0.306
  WS02004412           JUNCTION      0.00   500.05     0  02:40           0        7.02       0.325
  WS02004413           JUNCTION      0.00   499.38     0  02:40           0        6.99       0.472
  WS02004405           JUNCTION      0.04   506.58     0  02:37     0.00107        7.15       0.310
  WS02006109           JUNCTION      1.23   519.45     0  02:33      0.0347        7.34       0.294
  WS02006110           JUNCTION      0.00   519.48     0  02:33           0        7.31       0.311
  WS02006111           JUNCTION      0.00   538.94     0  02:33           0        7.28       0.070
  WS02006112           JUNCTION      8.02   529.77     0  02:34      0.0238         7.3       0.440
  WS02006113           JUNCTION      0.00   519.86     0  02:33           0        7.29       0.163
  WS02006115           JUNCTION      0.00   521.77     0  02:34           0        7.27       0.328
  WS02006116           JUNCTION      0.00   514.00     0  02:35           0        7.24       0.301
  WS02006230           JUNCTION     10.28   396.88     0  04:17        0.29        6.51       0.206
  WS02006231           JUNCTION      0.00   387.76     0  04:16           0        6.23       0.223
  WS02006232           JUNCTION      0.00   387.83     0  04:16           0        6.25       0.281
  WS02006234           JUNCTION      0.00   389.26     0  04:16           0        6.26       0.165
  WS02006235           JUNCTION      0.00   389.50     0  04:16           0         6.3       0.196
  WS02006238           JUNCTION      0.00   335.23     0  06:10           0        4.54       0.196
  WS02006240           JUNCTION      0.00   334.90     0  06:10           0        4.53       0.349
  WS02006242           JUNCTION      0.00   338.25     0  03:11           0        4.54       0.415
  WS02006243           JUNCTION      0.00   344.04     0  04:11           0        4.53      -0.026
  WS02006245           JUNCTION      0.00   346.78     0  04:11           0        4.54       0.321
  WS02006247           JUNCTION      0.00   352.05     0  02:30           0        4.55       0.233
  WS02006248           JUNCTION      0.00   359.61     0  02:30           0        4.56       0.161
  WS02006249           JUNCTION      0.00   414.89     0  02:30           0        4.91       0.310
  WS02006239           JUNCTION      0.00   335.44     0  06:10           0        4.53       0.304
  WS02006251           JUNCTION      0.08   419.27     0  02:30     0.00217        4.96       0.288
  WS02006252           JUNCTION      0.00   400.00     0  03:30           0         4.8       0.011
  WS02006253           JUNCTION      1.22    35.36     0  02:19     0.00309       0.163       5.342
  WS02006256           JUNCTION      0.00   599.91     0  03:00           0        4.03       0.073
  WS02004138           JUNCTION      0.00   379.99     0  04:30           0        5.64       0.068
  WS02004407           JUNCTION      0.00   506.46     0  02:38           0        7.09       0.124
  WS02006228           JUNCTION      0.00   518.20     0  02:33           0        7.32       0.214
  WS02006229           JUNCTION      0.00   518.33     0  02:33           0        7.33       0.187
  WS02006280           JUNCTION      0.00   183.56     0  02:20           0       0.839       0.008
  WS02006284           JUNCTION      0.10   183.55     0  02:20      0.0027        0.84       0.128
  WS02006287           JUNCTION      0.00   183.48     0  02:19           0       0.838       0.086
  WSF200               JUNCTION      0.00   499.27     0  02:41           0        6.95       0.075
  HS02004901           JUNCTION      9.93     9.93     0  02:11      0.0287      0.0288       6.492
  HS02004881           JUNCTION      4.02    34.42     0  02:19      0.0125       0.131       0.206
  HS02004876           JUNCTION      6.40    30.69     0  02:19       0.024       0.119       0.444
  HS02004870           JUNCTION      7.09    24.41     0  02:19      0.0237      0.0952       0.112
  HS02004862           JUNCTION      5.87    17.79     0  02:20      0.0293      0.0717       0.236
  HS02004856           JUNCTION      5.25    11.97     0  02:19      0.0178      0.0439       3.393
  HS02004852           JUNCTION      0.00     7.04     0  02:19           0      0.0261       0.193
  HS02004848           JUNCTION     11.67    11.67     0  02:23      0.0563      0.0563       0.078
  HS02004842           JUNCTION      0.00     5.01     0  02:33           0      0.0432      43.038
  HS02004837           JUNCTION     17.71    22.03     0  02:18        0.22        0.25       0.324
  HS02004830           JUNCTION      0.15    22.16     0  02:19     0.00423       0.241       0.514
  HS02004824           JUNCTION     13.17    35.16     0  02:23      0.0738       0.313       0.172
  HS02004817           JUNCTION      0.60    35.76     0  02:23      0.0169        0.33       5.323
  HS02004807           JUNCTION     13.33    47.90     0  02:21      0.0435       0.357       1.199
  HS02004802           JUNCTION      0.00    48.08     0  02:22           0       0.352       1.166
  HS02004799           JUNCTION     10.26   115.46     0  02:17      0.0352       0.431       0.529
  HS02004792           JUNCTION     45.89   105.41     0  02:17       0.155       0.396       0.104
  HS02004788           JUNCTION     15.60    61.35     0  02:18       0.096       0.243       0.162
  HS02004785           JUNCTION      0.15    46.15     0  02:17     0.00423       0.149       0.326
  HS02004777           JUNCTION      0.03    46.52     0  02:16    0.000846       0.149       3.603
  HS02004770           JUNCTION     38.85    47.67     0  02:13       0.123        0.15       2.114
  HS02004480           JUNCTION      0.00   136.20     0  02:18           0       0.502       0.143
  HS02004479           JUNCTION      0.00    21.12     0  02:20           0      0.0833       0.884
  HS02004478           JUNCTION      0.00   183.48     0  02:19           0       0.839       0.075
  YS02001745           JUNCTION     67.29    67.29     0  03:01       0.738       0.738       0.106
  YS02001748           JUNCTION      0.04   170.21     0  03:32     0.00127       0.964      -0.017
  YS02001751           JUNCTION      0.01   216.52     0  03:33     0.00031       0.993       0.317
  YS02001754           JUNCTION      0.26   158.58     0  03:33     0.00733        1.02       1.192
  YS02001762           JUNCTION      0.00   112.56     0  03:29           0       0.847       1.832
  YS02001765           JUNCTION      0.00    95.76     0  02:56           0       0.841       1.971
  YS02001767           JUNCTION      0.54   107.64     0  03:20      0.0151       0.849       2.605
  YS02001770           JUNCTION     86.51   110.24     0  03:19       0.867       0.987       1.915
  YS02001774           JUNCTION      0.00    40.26     0  02:23           0       0.229       7.763
  YS02001779           JUNCTION      0.01    27.48     0  04:07    0.000141      0.0925       7.215
  YS02001882           JUNCTION      0.00     3.52     0  02:08           0     0.00483      50.924
  YS02001884           JUNCTION      0.00    10.09     0  02:08           0      0.0194      32.579
  YS02001759           JUNCTION     84.46   182.28     0  03:20        0.81        1.63       1.082
  YS02001887           JUNCTION    111.00   111.00     0  02:47       0.971       0.981       0.724
  YS02001890           JUNCTION      0.00   110.36     0  02:49           0       0.958       0.814
  YS02001898           JUNCTION      0.00   109.89     0  02:52           0       0.947       0.224
  YS02001901           JUNCTION      0.00   109.77     0  02:52           0       0.946       0.575
  YS02001904           JUNCTION      0.00   109.38     0  02:53           0       0.945       0.535
  YS02001907           JUNCTION      0.00   199.93     0  03:02           0        2.02       1.095
  YS02001910           JUNCTION      0.00    91.20     0  03:01           0        1.08       0.932
  YS02001915           JUNCTION     60.35    90.96     0  03:01       0.633        1.09       0.408
  YS02001918           JUNCTION      0.00    30.87     0  03:03           0       0.457       0.233
  YS02001619           JUNCTION     58.67    58.67     0  03:01       0.624       0.624       0.194
  YS02001629           JUNCTION      0.00   115.53     0  03:40           0       0.618       1.149
  YS02001641           JUNCTION      0.00   162.99     0  03:33           0        1.29       1.098
  YS02001644           JUNCTION     63.90   201.83     0  03:17       0.708        1.97       0.871
  YS02001652           JUNCTION      0.00   155.12     0  03:35           0       0.896       1.227
  YS02001655           JUNCTION      0.15   198.88     0  03:37     0.00434       0.887       0.562
  YS02001920           JUNCTION      2.87    30.89     0  03:02      0.0809       0.459       0.431
  YS02001923           JUNCTION      0.04    28.02     0  03:02     0.00106       0.379       0.075
  YS02001926           JUNCTION      0.05    28.05     0  03:01     0.00147        0.38       0.541
  YS02001929           JUNCTION     28.02    28.02     0  03:01       0.378       0.378       0.073
  YS02001658           JUNCTION      0.00   139.74     0  03:26           0        0.88       0.029
  YS02001661           JUNCTION      0.00    78.70     0  02:49           0       0.709       0.103
  YS02001664           JUNCTION     78.70    78.70     0  02:49       0.709       0.709       0.023
  YS02001622           JUNCTION      0.00    84.55     0  03:29           0       0.623       0.694
  YS02001633           JUNCTION     64.95   137.48     0  03:03       0.729        1.32       1.557
  YS02001649           JUNCTION      0.00   310.94     0  03:25           0        2.81       0.927
  YS02001757           JUNCTION      0.00   497.35     0  03:30           0        5.15       1.455
  YS02001895           JUNCTION      0.00   110.03     0  02:51           0        0.95       0.382
  YS02001625           JUNCTION      0.00   115.87     0  03:31           0       0.634       2.876
  YS02163301           JUNCTION      0.00   106.91     0  03:29           0       0.604       2.337
  YS02163601           JUNCTION      0.11   163.27     0  03:36      0.0031        1.29       1.690
  YS02164001           JUNCTION      0.00   163.77     0  03:33           0        1.28       1.025
  YS02001647           JUNCTION      0.00   210.95     0  03:36           0        1.94       0.731
  YSB1154              JUNCTION     11.38    11.38     0  02:16      0.0427       0.044       3.391
  YSB6556              JUNCTION      0.00    11.39     0  02:18           0      0.0451       2.843
  YSB1174              JUNCTION     11.29    11.29     0  02:10      0.0311      0.0322       4.157
  YSB1171              JUNCTION      0.00    21.15     0  02:17           0      0.0828       8.268
  YS02006553           JUNCTION      0.00   200.29     0  03:02           0        2.01       0.711
  YS02006561           JUNCTION      0.00   293.07     0  03:00           0        2.84       0.022
  YS02006556           JUNCTION      0.00   200.57     0  03:03           0        2.01       0.513
  YS02006558           JUNCTION     94.15   293.08     0  02:59       0.884        2.87       0.156
  YS02001783           JUNCTION      0.00   293.07     0  03:00           0        2.84       0.052
  YS02001784           JUNCTION      1.06   294.13     0  02:59      0.0299        2.87       0.086
  YS02001786           JUNCTION      0.06   294.18     0  02:59     0.00159        2.87       0.083
  YS02001788           JUNCTION      0.07   294.24     0  03:00       0.002        2.87       0.048
  YS02001790           JUNCTION      0.15   294.40     0  03:00     0.00437        2.87       0.060
  YS02001791           JUNCTION      0.00   294.39     0  03:00           0        2.87       0.030
  YS02001793           JUNCTION      0.00   298.94     0  03:01           0        2.87       0.012
  WS02004139           JUNCTION      0.32   379.65     0  04:00     0.00905        5.65       0.572
  WSC                  OUTFALL       0.00   866.50     0  02:46           0        13.1       0.000
  3                    OUTFALL       0.00   493.56     0  03:29           0        2.23       0.000
  4                    OUTFALL       0.00   106.73     0  03:34           0       0.338       0.000
  5                    OUTFALL       0.00     0.00     0  00:00           0           0       0.000 ltr
  JK-storage           STORAGE       0.00   299.53     0  03:01           0        3.02     -25.026
  CC-storage           STORAGE       0.00   488.78     0  03:03           0        4.83      -0.562
  XR-storage           STORAGE     309.18   309.18     0  03:01        6.88        7.48      -0.002
  
  
  **********************
  Node Surcharge Summary
  **********************
  
  Surcharging occurs when water rises above the top of the highest conduit.
  ---------------------------------------------------------------------
                                               Max. Height   Min. Depth
                                   Hours       Above Crown    Below Rim
  Node                 Type      Surcharged         Meters       Meters
  ---------------------------------------------------------------------
  WS02006109           JUNCTION        1.67          0.133        1.687
  WS02006112           JUNCTION        0.11          0.020        1.660
  WS02006232           JUNCTION        2.01          0.104        1.376
  WS02006234           JUNCTION        0.06          0.024        1.216
  WS02006235           JUNCTION        0.72          0.068        1.222
  WS02006238           JUNCTION        1.37          0.086        1.344
  WS02006240           JUNCTION        0.04          0.014        1.376
  WS02006242           JUNCTION        0.80          0.061        0.759
  WS02006239           JUNCTION        0.23          0.039        1.251
  WS02006252           JUNCTION        2.48          0.185        0.915
  WS02006228           JUNCTION        1.49          0.157        2.043
  YS02001762           JUNCTION        0.14          0.012        1.138
  YS02001759           JUNCTION        1.06          0.047        1.163
  YS02001649           JUNCTION        0.37          0.023        1.027
  YS02001757           JUNCTION        3.34          0.151        1.059
  YS02163601           JUNCTION        0.32          0.050        1.030
  
  
  *********************
  Node Flooding Summary
  *********************
  
  Flooding refers to all water that overflows a node, whether it ponds or not.
  --------------------------------------------------------------------------
                                                             Total   Maximum
                                 Maximum   Time of Max       Flood    Ponded
                        Hours       Rate    Occurrence      Volume     Depth
  Node                 Flooded       LPS   days hr:min    10^6 ltr    Meters
  --------------------------------------------------------------------------
  XR-storage              2.35    200.21      0  03:17       0.907     0.000
  
  
  **********************
  Storage Volume Summary
  **********************
  
  --------------------------------------------------------------------------------------------------
                         Average     Avg  Evap Exfil       Maximum     Max    Time of Max    Maximum
                          Volume    Pcnt  Pcnt  Pcnt        Volume    Pcnt     Occurrence    Outflow
  Storage Unit           1000 m3    Full  Loss  Loss       1000 m3    Full    days hr:min        LPS
  --------------------------------------------------------------------------------------------------
  JK-storage               0.017       6     0     0         0.151      52       0  00:20     599.91
  CC-storage               0.554       4     0     0         0.926       6       0  04:06     400.00
  XR-storage               0.830      90     0     0         0.926     100       0  03:17     379.99
  
  
  ***********************
  Outfall Loading Summary
  ***********************
  
  -----------------------------------------------------------
                         Flow       Avg       Max       Total
                         Freq      Flow      Flow      Volume
  Outfall Node           Pcnt       LPS       LPS    10^6 ltr
  -----------------------------------------------------------
  WSC                  100.00    534.63    866.50      13.052
  3                     78.05    147.23    493.56       2.227
  4                     38.19     40.30    106.73       0.338
  5                      0.00      0.00      0.00       0.000
  -----------------------------------------------------------
  System                54.06    722.17   1162.19      15.616
  
  
  ********************
  Link Flow Summary
  ********************
  
  -----------------------------------------------------------------------------
                                 Maximum  Time of Max   Maximum    Max/    Max/
                                  |Flow|   Occurrence   |Veloc|    Full    Full
  Link                 Type          LPS  days hr:min     m/sec    Flow   Depth
  -----------------------------------------------------------------------------
  WS02003066WSF200     CONDUIT    499.27     0  02:41      2.72    0.08    0.22
  WS02006287WS02006284 CONDUIT    183.46     0  02:20      1.56    0.09    0.21
  WS02006284WS02006280 CONDUIT    183.56     0  02:20      1.80    0.08    0.19
  WS02006280WS02006229 CONDUIT    183.56     0  02:20      2.89    0.04    0.14
  WS02006229WS02006228 CONDUIT    518.20     0  02:33      1.03    1.72    1.00
  WS02006256WS02006235 CONDUIT    158.12     0  00:23      2.30    1.67    1.00
  WS02006253WS02006251 CONDUIT     45.55     0  02:38      0.47    0.14    0.90
  WS02006252WS02006251 CONDUIT    400.27     0  04:10      3.19    1.47    1.00
  WS02006251WS02006249 CONDUIT    414.89     0  02:30      1.20    1.20    0.88
  WS02006249WS02006248 CONDUIT    359.61     0  02:30      1.15    1.97    0.84
  WS02006248WS02006247 CONDUIT    352.05     0  02:30      1.11    0.77    0.88
  WS02006247WS02006245 CONDUIT    346.78     0  04:11      1.07    2.75    0.91
  WS02006245WS02006243 CONDUIT    344.04     0  04:11      1.08    1.02    0.93
  WS02006243WS02006242 CONDUIT    338.25     0  03:11      0.99    0.72    0.98
  WS02006242WS02006240 CONDUIT    334.90     0  06:10      0.94    1.33    1.00
  WS02006240WS02006239 CONDUIT    335.44     0  06:10      0.97    1.06    1.00
  WS02006239WS02006238 CONDUIT    335.23     0  06:10      0.90    1.07    1.00
  WS02006238WS02006235 CONDUIT    333.62     0  06:10      0.91    0.74    1.00
  WS02006235WS02006234 CONDUIT    389.26     0  04:16      1.05    4.11    1.00
  WS02006234WS02006232 CONDUIT    387.83     0  04:16      1.02    0.78    1.00
  WS02006232WS02006231 CONDUIT    387.76     0  04:16      1.05    0.81    0.97
  WS02006231WS02006230 CONDUIT    386.60     0  04:17      1.34    5.86    0.92
  WS02006230WS02006229 CONDUIT    396.53     0  04:21      1.03    8.82    1.00
  WS02006228WS02006109 CONDUIT    518.22     0  02:33      1.03    2.26    1.00
  WS02006116WS02004401 CONDUIT    510.14     0  02:36      0.77    0.70    0.82
  WS02006115WS02006116 CONDUIT    514.00     0  02:35      0.85    0.66    0.73
  WS02006113WS02006111 CONDUIT    538.94     0  02:33      2.43    0.65    0.45
  WS02006112WS02006115 CONDUIT    521.77     0  02:34      0.74    0.31    0.86
  WS02006111WS02006112 CONDUIT    524.97     0  02:34      1.47    0.25    0.67
  WS02006110WS02006113 CONDUIT    519.86     0  02:33      1.24    0.47    0.78
  WS02006109WS02006110 CONDUIT    519.48     0  02:33      1.03    1.00    1.00
  WS02004411WS02004412 CONDUIT    500.05     0  02:40      0.89    0.71    0.67
  WS02004401WS02004402 CONDUIT    508.04     0  02:36      0.80    0.61    0.84
  WS02004413WS02003067 CONDUIT    499.14     0  02:41      1.07    0.21    0.58
  WS02004412WS02004413 CONDUIT    499.38     0  02:40      0.78    0.33    0.76
  WS02004410WS02004411 CONDUIT    501.21     0  02:39      0.92    0.68    0.66
  WS02004409WS02004410 CONDUIT    503.34     0  02:39      0.95    0.65    0.65
  WS02004407WS02004409 CONDUIT    506.27     0  02:38      1.45    0.18    0.46
  WS02004406WS02004407 CONDUIT    506.46     0  02:38      1.00    0.23    0.61
  WS02004405WS02004406 CONDUIT    507.17     0  02:37      0.66    1.00    0.94
  WS02004404WS02004405 CONDUIT    506.55     0  02:37      0.88    4.96    0.94
  WS02004403WS02004404 CONDUIT    506.85     0  02:38      0.75    0.37    0.91
  WS02004402WS02004403 CONDUIT    507.24     0  02:37      0.79    0.73    0.86
  WS02004139WS02001211 CONDUIT    374.48     0  04:00      0.69    0.47    0.58
  WS02004138WS02004139 CONDUIT    379.33     0  04:00      2.95    0.08    0.43
  WS02003067WS02003066 CONDUIT    499.21     0  02:41      1.16    0.16    0.41
  WS02001213WS02003059 CONDUIT    377.33     0  04:02      0.67    0.62    0.75
  WS02001212WS02001213 CONDUIT    377.10     0  04:01      1.30    0.58    0.45
  WS02001211WS02001212 CONDUIT    378.09     0  04:01      0.76    0.29    0.63
  WS02003072WS02003073 CONDUIT    864.12     0  02:45      1.68    1.87    0.47
  WS02003069WS02003072 CONDUIT    863.65     0  02:44      1.58    0.42    0.49
  WS02003060WS02003069 CONDUIT    863.25     0  02:44      1.83    0.34    0.44
  WS02003059WS02003060 CONDUIT    378.75     0  04:02      0.92    0.25    0.64
  HS02004901HS02004770 CONDUIT      9.11     0  02:16      0.04    0.03    0.31
  HS02004876HS02004881 CONDUIT     30.74     0  02:20      0.52    0.33    0.09
  HS02004870HS02004876 CONDUIT     24.40     0  02:20      0.36    0.02    0.10
  HS02004842HS02004848 CONDUIT      5.01     0  02:33      0.03    0.00    0.27
  HS02004837HS02004842 CONDUIT      5.17     0  02:33      0.42    0.00    0.29
  HS02004830HS02004837 CONDUIT     22.01     0  02:19      0.43    0.02    0.07
  HS02004824HS02004830 CONDUIT     22.16     0  02:20      0.47    0.03    0.07
  HS02004817HS02004824 CONDUIT     35.16     0  02:23      0.17    0.02    0.39
  HS02004770HS02004777 CONDUIT     46.49     0  02:16      0.21    0.09    0.32
  HS02004799HS02004480 CONDUIT    115.29     0  02:17      0.56    0.15    0.30
  HS02004792HS02004799 CONDUIT    105.36     0  02:17      0.64    0.06    0.23
  HS02004788HS02004792 CONDUIT     61.30     0  02:18      0.80    0.04    0.11
  HS02004785HS02004788 CONDUIT     46.02     0  02:18      0.48    0.35    0.14
  HS02004777HS02004785 CONDUIT     46.00     0  02:17      0.25    0.06    0.26
  HS02004480HS02004478 CONDUIT    136.16     0  02:18      0.92    0.57    0.21
  HS02004479HS02004480 CONDUIT     21.30     0  02:21      0.15    0.02    0.29
  HS02004862HS02004870 CONDUIT     17.76     0  02:21      0.44    0.02    0.06
  HS02004848HS02004852 CONDUIT      7.04     0  02:19      0.29    0.01    0.03
  HS02004856HS02004862 CONDUIT     11.94     0  02:20      0.32    0.01    0.05
  HS02004852HS02004856 CONDUIT      7.01     0  02:21      0.11    0.01    0.09
  HS02004802HS02004478 CONDUIT     48.34     0  02:23      0.29    0.04    0.24
  HS02004478WS02006287 CONDUIT    183.48     0  02:19      1.26    0.05    0.16
  HS02004817HS02004807 CONDUIT     36.17     0  02:25      0.10    0.02    0.50
  HS02004807HS02004802 CONDUIT     48.08     0  02:22      0.24    0.09    0.29
  YS02001759YS02001757 CONDUIT    181.80     0  03:20      0.23    0.13    1.00
  YS02001762YS02001759 CONDUIT    115.08     0  03:31      0.18    0.13    1.00
  YS02001765YS02001762 CONDUIT    112.56     0  03:29      0.23    0.11    0.98
  YS02001770YS02001767 CONDUIT    107.10     0  03:20      0.31    0.42    0.92
  YS02001774YS02001770 CONDUIT     41.05     0  03:31      0.14    0.03    0.94
  YS02001779YS02001774 CONDUIT     29.58     0  03:32      0.08    0.01    0.86
  YS02001649YS02001757 CONDUIT    326.70     0  03:26      0.42    0.20    1.00
  YS02001767YS02001765 CONDUIT     95.76     0  02:56      0.25    0.12    0.95
  YS02006561YS02001783 CONDUIT    293.07     0  03:00      1.75    0.15    0.37
  YS02001783YS02001784 CONDUIT    293.07     0  02:59      1.21    0.40    0.49
  YS02001784YS02001785 CONDUIT    294.12     0  02:59      1.28    0.68    0.47
  YS02001788YS02001790 CONDUIT    294.25     0  03:00      1.84    0.22    0.35
  YS02001790YS02001791 CONDUIT    294.39     0  03:00      2.13    0.32    0.32
  YS02001791YS02001793 CONDUIT    298.94     0  03:01      4.30    0.13    0.21
  YS02001910YS02001907 CONDUIT     91.29     0  03:02      0.50    0.05    0.72
  YS02001786YS02001788 CONDUIT    294.17     0  03:00      1.71    0.57    0.37
  YS02001915YS02001910 CONDUIT     91.20     0  03:01      0.44    0.05    0.51
  YS02001918YS02001915 CONDUIT     30.85     0  03:03      0.44    0.02    0.25
  YS02001923YS02001920 CONDUIT     28.02     0  03:02      0.43    0.01    0.14
  YS02001926YS02001923 CONDUIT     27.98     0  03:02      0.47    0.04    0.13
  YS02001929YS02001926 CONDUIT     28.00     0  03:01      0.50    0.01    0.12
  YS02001920YS02001918 CONDUIT     30.87     0  03:03      0.45    0.03    0.14
  YS02001629YS02163301 CONDUIT    106.91     0  03:29      0.15    0.13    0.89
  YS02001619YS02001622 CONDUIT     84.55     0  03:29      0.63    0.12    0.50
  YS02001622YS02001625 CONDUIT     95.44     0  03:31      0.24    0.05    0.67
  YS02001625YS02001629 CONDUIT    115.53     0  03:40      0.24    0.05    0.65
  YS02163301YS02001633 CONDUIT     76.66     0  03:18      0.10    0.07    0.94
  YS02163601YS02164001 CONDUIT    163.77     0  03:33      0.21    0.15    0.98
  YS02164001YS02001641 CONDUIT    162.99     0  03:33      0.21    0.22    0.97
  YS02001641YS02001644 CONDUIT    145.07     0  03:17      0.19    0.47    0.98
  YS02001647YS02001649 CONDUIT    219.15     0  03:20      0.30    0.12    0.90
  YS02006553YS02006556 CONDUIT    200.57     0  03:03      0.30    0.17    0.80
  YS02006556YS02006558 CONDUIT    200.77     0  03:03      0.29    0.16    0.83
  YSB6556YSB1171       CONDUIT     11.52     0  02:21      0.05    0.01    0.56
  YS02001907YS02006553 CONDUIT    200.29     0  03:02      0.24    0.24    0.91
  YS02006558YS02006561 CONDUIT    293.07     0  03:00      2.25    0.65    0.47
  YS02001633YS02163601 CONDUIT    163.16     0  03:36      0.21    0.17    0.98
  YS02001644YS02001647 CONDUIT    210.95     0  03:36      0.30    0.12    0.90
  YS02001745YS02001748 CONDUIT     67.28     0  03:01      1.38    0.03    0.19
  YS02001748YS02001751 CONDUIT    216.50     0  03:33      1.06    0.11    0.43
  YS02001751YS02001754 CONDUIT     83.44     0  03:05      0.94    0.04    0.68
  YS02001754YS02001757 CONDUIT    197.05     0  03:32      0.33    0.08    0.92
  YS02001882YS02001884 CONDUIT      3.52     0  02:08      0.06    0.00    0.45
  YS02001884YS02001887 CONDUIT     10.09     0  02:08      0.06    0.01    0.54
  YS02001890YS02001895 CONDUIT    110.03     0  02:51      0.28    0.05    0.51
  YS02001895YS02001898 CONDUIT    109.89     0  02:52      0.47    0.19    0.37
  YS02001898YS02001901 CONDUIT    109.77     0  02:52      0.32    0.07    0.45
  YS02001901YS02001904 CONDUIT    109.38     0  02:53      0.28    0.17    0.50
  YS02001904YS02001907 CONDUIT    109.44     0  02:55      0.20    0.04    0.66
  YS02001887YS02001890 CONDUIT    110.36     0  02:49      0.23    0.19    0.59
  YS02001652YS02001649 CONDUIT    190.10     0  03:29      0.31    0.09    0.92
  YS02001655YS02001652 CONDUIT    108.30     0  03:16      1.01    0.05    0.70
  YS02001658YS02001655 CONDUIT    198.73     0  03:37      1.22    0.08    0.41
  YS02001661YS02001658 CONDUIT     78.70     0  02:50      1.42    0.03    0.20
  YS02001664YS02001661 CONDUIT     78.70     0  02:49      1.07    0.02    0.15
  YSB1154YSB6556       CONDUIT     11.39     0  02:18      0.19    0.02    0.45
  YSB1174YSB1171       CONDUIT     10.52     0  02:12      0.05    0.02    0.56
  YSB1171HS02004479    CONDUIT     21.12     0  02:20      0.54    0.01    0.43
  HS02004881HS02006253 CONDUIT     34.41     0  02:19      1.59    0.01    0.23
  YS02001793JiankangQianchi CONDUIT    299.53     0  03:01     13.03    0.02    0.55
  YS02001757CaochengTiaoxuchi CONDUIT    488.78     0  03:03      1.07    0.21    0.67
  WSF200WS02003060     CONDUIT    500.72     0  02:41      1.77    0.11    0.32
  1                    CONDUIT    866.50     0  02:46      3.20    0.30    0.38
  2                    CONDUIT    106.73     0  03:34      4.94    0.26    0.34
  3                    CONDUIT    493.56     0  03:29      9.77    0.79    0.67
  4                    CONDUIT      0.00     0  00:00      0.00    0.00    0.00
  CC-Pump-1            PUMP       200.00     0  03:30              1.00
  CC-Pump-2            PUMP       200.00     0  03:10              1.00
  JK-Pump-1            PUMP       300.00     0  00:30              1.00
  JK-Pump-2            PUMP       300.00     0  02:50              1.00
  XR-Pump-1            PUMP        95.00     0  00:00              1.00
  XR-Pump-2            PUMP        95.00     0  00:20              1.00
  XR-Pump-3            PUMP        95.00     0  00:00              1.00
  XR-Pump-4            PUMP        95.00     0  02:40              1.00
  
  
  ***************************
  Flow Classification Summary
  ***************************
  
  -------------------------------------------------------------------------------------
                      Adjusted    ---------- Fraction of Time in Flow Class ---------- 
                       /Actual         Up    Down  Sub   Sup   Up    Down  Norm  Inlet 
  Conduit               Length    Dry  Dry   Dry   Crit  Crit  Crit  Crit  Ltd   Ctrl  
  -------------------------------------------------------------------------------------
  WS02003066WSF200        1.00   0.05  0.01  0.00  0.00  0.94  0.00  0.00  0.71  0.00
  WS02006287WS02006284    1.00   0.04  0.01  0.00  0.70  0.25  0.00  0.00  0.78  0.00
  WS02006284WS02006280    1.00   0.04  0.00  0.00  0.00  0.00  0.00  0.96  0.00  0.00
  WS02006280WS02006229    1.00   0.04  0.00  0.00  0.00  0.00  0.00  0.96  0.00  0.00
  WS02006229WS02006228    1.00   0.00  0.00  0.00  1.00  0.00  0.00  0.00  0.00  0.00
  WS02006256WS02006235    1.00   0.01  0.00  0.00  0.99  0.00  0.00  0.00  0.00  0.00
  WS02006253WS02006251    1.00   0.01  0.03  0.00  0.96  0.00  0.00  0.00  0.00  0.00
  WS02006252WS02006251    1.00   0.08  0.00  0.00  0.00  0.00  0.92  0.00  0.00  0.00
  WS02006251WS02006249    1.00   0.00  0.00  0.00  1.00  0.00  0.00  0.00  0.28  0.00
  WS02006249WS02006248    1.00   0.00  0.00  0.00  0.90  0.00  0.09  0.00  0.00  0.00
  WS02006248WS02006247    1.00   0.00  0.00  0.00  0.97  0.00  0.00  0.03  0.18  0.00
  WS02006247WS02006245    1.00   0.00  0.00  0.00  0.97  0.00  0.00  0.02  0.00  0.00
  WS02006245WS02006243    1.00   0.01  0.00  0.00  0.95  0.00  0.00  0.05  0.01  0.00
  WS02006243WS02006242    1.00   0.01  0.00  0.00  0.99  0.00  0.00  0.00  0.22  0.00
  WS02006242WS02006240    1.00   0.01  0.00  0.00  0.99  0.00  0.00  0.00  0.00  0.00
  WS02006240WS02006239    1.00   0.01  0.00  0.00  0.96  0.00  0.00  0.04  0.01  0.00
  WS02006239WS02006238    1.00   0.01  0.00  0.00  0.99  0.00  0.00  0.00  0.00  0.00
  WS02006238WS02006235    1.00   0.01  0.00  0.00  0.99  0.00  0.00  0.00  0.00  0.00
  WS02006235WS02006234    1.00   0.01  0.00  0.00  0.95  0.00  0.04  0.00  0.00  0.00
  WS02006234WS02006232    1.00   0.01  0.00  0.00  0.99  0.00  0.00  0.00  0.05  0.00
  WS02006232WS02006231    1.00   0.01  0.00  0.00  0.99  0.00  0.00  0.00  0.00  0.00
  WS02006231WS02006230    1.00   0.01  0.00  0.00  0.61  0.00  0.38  0.00  0.00  0.00
  WS02006230WS02006229    1.00   0.00  0.00  0.00  0.99  0.00  0.00  0.01  0.00  0.00
  WS02006228WS02006109    1.00   0.00  0.00  0.00  1.00  0.00  0.00  0.00  0.00  0.00
  WS02006116WS02004401    1.00   0.03  0.00  0.00  0.97  0.00  0.00  0.00  0.00  0.00
  WS02006115WS02006116    1.00   0.03  0.00  0.00  0.97  0.00  0.00  0.00  0.00  0.00
  WS02006113WS02006111    1.00   0.02  0.00  0.00  0.00  0.98  0.00  0.00  0.11  0.00
  WS02006112WS02006115    1.00   0.02  0.01  0.00  0.97  0.00  0.00  0.00  0.00  0.00
  WS02006111WS02006112    1.00   0.02  0.00  0.00  0.97  0.00  0.00  0.00  0.94  0.00
  WS02006110WS02006113    1.00   0.00  0.02  0.00  0.98  0.00  0.00  0.00  0.00  0.00
  WS02006109WS02006110    1.00   0.00  0.00  0.00  1.00  0.00  0.00  0.00  0.00  0.00
  WS02004411WS02004412    1.00   0.04  0.00  0.00  0.96  0.00  0.00  0.00  0.00  0.00
  WS02004401WS02004402    1.00   0.03  0.00  0.00  0.97  0.00  0.00  0.00  0.00  0.00
  WS02004413WS02003067    1.00   0.04  0.01  0.00  0.00  0.00  0.94  0.00  0.00  0.00
  WS02004412WS02004413    1.00   0.04  0.00  0.00  0.96  0.00  0.00  0.00  0.03  0.00
  WS02004410WS02004411    1.00   0.04  0.00  0.00  0.96  0.00  0.00  0.00  0.03  0.00
  WS02004409WS02004410    1.00   0.04  0.00  0.00  0.96  0.00  0.00  0.00  0.03  0.00
  WS02004407WS02004409    1.00   0.04  0.00  0.00  0.96  0.00  0.00  0.00  0.86  0.00
  WS02004406WS02004407    1.00   0.00  0.04  0.00  0.96  0.00  0.00  0.00  0.00  0.00
  WS02004405WS02004406    1.00   0.00  0.00  0.00  1.00  0.00  0.00  0.00  0.04  0.00
  WS02004404WS02004405    1.00   0.00  0.00  0.00  1.00  0.00  0.00  0.00  0.00  0.00
  WS02004403WS02004404    1.00   0.00  0.03  0.00  0.97  0.00  0.00  0.00  0.01  0.00
  WS02004402WS02004403    1.00   0.03  0.00  0.00  0.97  0.00  0.00  0.00  0.00  0.00
  WS02004139WS02001211    1.00   0.00  0.00  0.00  1.00  0.00  0.00  0.00  0.00  0.00
  WS02004138WS02004139    1.00   0.00  0.00  0.00  1.00  0.00  0.00  0.00  1.00  0.00
  WS02003067WS02003066    1.00   0.06  0.00  0.00  0.94  0.00  0.00  0.00  0.00  0.00
  WS02001213WS02003059    1.00   0.00  0.00  0.00  1.00  0.00  0.00  0.00  0.00  0.00
  WS02001212WS02001213    1.00   0.00  0.00  0.00  0.83  0.00  0.17  0.00  0.00  0.00
  WS02001211WS02001212    1.00   0.00  0.00  0.00  1.00  0.00  0.00  0.00  0.00  0.00
  WS02003072WS02003073    1.00   0.00  0.00  0.00  0.00  0.00  0.00  1.00  0.00  0.00
  WS02003069WS02003072    1.00   0.00  0.00  0.00  1.00  0.00  0.00  0.00  0.31  0.00
  WS02003060WS02003069    1.00   0.00  0.00  0.00  1.00  0.00  0.00  0.00  0.16  0.00
  WS02003059WS02003060    1.00   0.00  0.00  0.00  1.00  0.00  0.00  0.00  0.01  0.00
  HS02004901HS02004770    1.00   0.04  0.00  0.00  0.96  0.00  0.00  0.00  0.02  0.00
  HS02004876HS02004881    1.00   0.00  0.00  0.00  1.00  0.00  0.00  0.00  0.00  0.00
  HS02004870HS02004876    1.00   0.00  0.00  0.00  1.00  0.00  0.00  0.00  0.95  0.00
  HS02004842HS02004848    1.00   0.00  0.04  0.00  0.96  0.00  0.00  0.00  0.69  0.00
  HS02004837HS02004842    1.00   0.00  0.00  0.00  1.00  0.00  0.00  0.00  0.11  0.00
  HS02004830HS02004837    1.00   0.00  0.00  0.00  1.00  0.00  0.00  0.00  0.99  0.00
  HS02004824HS02004830    1.00   0.00  0.00  0.00  1.00  0.00  0.00  0.00  0.00  0.00
  HS02004817HS02004824    1.00   0.00  0.00  0.00  1.00  0.00  0.00  0.00  1.00  0.00
  HS02004770HS02004777    1.00   0.00  0.04  0.00  0.96  0.00  0.00  0.00  0.07  0.00
  HS02004799HS02004480    1.00   0.00  0.01  0.00  0.95  0.00  0.05  0.00  0.00  0.00
  HS02004792HS02004799    1.00   0.00  0.00  0.00  1.00  0.00  0.00  0.00  0.98  0.00
  HS02004788HS02004792    1.00   0.00  0.00  0.00  1.00  0.00  0.00  0.00  0.98  0.00
  HS02004785HS02004788    1.00   0.00  0.00  0.00  1.00  0.00  0.00  0.00  0.00  0.00
  HS02004777HS02004785    1.00   0.00  0.00  0.00  1.00  0.00  0.00  0.00  0.21  0.00
  HS02004480HS02004478    1.00   0.04  0.00  0.00  0.74  0.00  0.00  0.21  0.00  0.00
  HS02004479HS02004480    1.00   0.01  0.00  0.00  0.99  0.00  0.00  0.00  0.16  0.00
  HS02004862HS02004870    1.00   0.00  0.00  0.00  1.00  0.00  0.00  0.00  0.06  0.00
  HS02004848HS02004852    1.00   0.04  0.00  0.00  0.96  0.00  0.00  0.00  0.70  0.00
  HS02004856HS02004862    1.00   0.00  0.06  0.00  0.94  0.00  0.00  0.00  0.74  0.00
  HS02004852HS02004856    1.00   0.04  0.01  0.00  0.95  0.00  0.00  0.00  0.83  0.00
  HS02004802HS02004478    1.00   0.04  0.01  0.00  0.95  0.00  0.00  0.00  0.01  0.00
  HS02004478WS02006287    1.00   0.05  0.00  0.00  0.89  0.06  0.00  0.00  0.80  0.00
  HS02004817HS02004807    1.00   0.00  0.04  0.00  0.96  0.00  0.00  0.00  0.00  0.00
  HS02004807HS02004802    1.00   0.04  0.00  0.00  0.96  0.00  0.00  0.00  0.01  0.00
  YS02001759YS02001757    1.00   0.00  0.00  0.00  1.00  0.00  0.00  0.00  0.17  0.00
  YS02001762YS02001759    1.00   0.00  0.00  0.00  1.00  0.00  0.00  0.00  0.04  0.00
  YS02001765YS02001762    1.00   0.00  0.00  0.00  1.00  0.00  0.00  0.00  0.22  0.00
  YS02001770YS02001767    1.00   0.00  0.00  0.00  1.00  0.00  0.00  0.00  0.00  0.00
  YS02001774YS02001770    1.00   0.00  0.05  0.00  0.95  0.00  0.00  0.00  0.07  0.00
  YS02001779YS02001774    1.00   0.00  0.00  0.00  1.00  0.00  0.00  0.00  0.27  0.00
  YS02001649YS02001757    1.00   0.00  0.00  0.00  1.00  0.00  0.00  0.00  0.19  0.00
  YS02001767YS02001765    1.00   0.00  0.00  0.00  1.00  0.00  0.00  0.00  0.01  0.00
  YS02006561YS02001783    1.00   0.07  0.00  0.00  0.00  0.93  0.00  0.00  0.73  0.00
  YS02001783YS02001784    1.00   0.00  0.07  0.00  0.93  0.00  0.00  0.00  0.00  0.00
  YS02001784YS02001785    1.00   0.00  0.00  0.00  1.00  0.00  0.00  0.00  0.25  0.00
  YS02001788YS02001790    1.00   0.00  0.00  0.00  0.07  0.93  0.00  0.00  0.79  0.00
  YS02001790YS02001791    1.00   0.00  0.00  0.00  0.00  1.00  0.00  0.00  0.52  0.00
  YS02001791YS02001793    1.00   0.00  0.00  0.00  0.00  1.00  0.00  0.00  0.00  0.00
  YS02001910YS02001907    1.00   0.00  0.00  0.00  0.99  0.00  0.00  0.00  0.13  0.00
  YS02001786YS02001788    1.00   0.00  0.00  0.00  0.07  0.93  0.00  0.00  0.00  0.00
  YS02001915YS02001910    1.00   0.00  0.00  0.00  1.00  0.00  0.00  0.00  0.24  0.00
  YS02001918YS02001915    1.00   0.00  0.00  0.00  1.00  0.00  0.00  0.00  0.81  0.00
  YS02001923YS02001920    1.00   0.00  0.00  0.00  1.00  0.00  0.00  0.00  1.00  0.00
  YS02001926YS02001923    1.00   0.00  0.03  0.00  0.00  0.00  0.97  0.00  0.00  0.00
  YS02001929YS02001926    1.00   0.00  0.04  0.00  0.96  0.00  0.00  0.00  0.87  0.00
  YS02001920YS02001918    1.00   0.00  0.00  0.00  1.00  0.00  0.00  0.00  0.00  0.00
  YS02001629YS02163301    1.00   0.06  0.00  0.00  0.94  0.00  0.00  0.00  0.00  0.00
  YS02001619YS02001622    1.00   0.04  0.00  0.00  0.96  0.00  0.00  0.00  0.00  0.00
  YS02001622YS02001625    1.00   0.04  0.00  0.00  0.96  0.00  0.00  0.00  0.13  0.00
  YS02001625YS02001629    1.00   0.04  0.03  0.00  0.91  0.00  0.02  0.00  0.00  0.00
  YS02163301YS02001633    1.00   0.00  0.06  0.00  0.94  0.00  0.00  0.00  0.00  0.00
  YS02163601YS02164001    1.00   0.00  0.03  0.00  0.97  0.00  0.00  0.00  0.00  0.00
  YS02164001YS02001641    1.00   0.00  0.03  0.00  0.97  0.00  0.00  0.00  0.07  0.00
  YS02001641YS02001644    1.00   0.00  0.00  0.00  1.00  0.00  0.00  0.00  0.00  0.00
  YS02001647YS02001649    1.00   0.00  0.06  0.00  0.93  0.00  0.00  0.00  0.01  0.00
  YS02006553YS02006556    1.00   0.00  0.00  0.00  1.00  0.00  0.00  0.00  0.03  0.00
  YS02006556YS02006558    1.00   0.00  0.00  0.00  1.00  0.00  0.00  0.00  0.00  0.00
  YSB6556YSB1171          1.00   0.01  0.03  0.00  0.96  0.00  0.00  0.00  0.00  0.00
  YS02001907YS02006553    1.00   0.00  0.00  0.00  1.00  0.00  0.00  0.00  0.00  0.00
  YS02006558YS02006561    1.00   0.07  0.00  0.00  0.00  0.93  0.00  0.00  0.72  0.00
  YS02001633YS02163601    1.00   0.00  0.00  0.00  1.00  0.00  0.00  0.00  0.20  0.00
  YS02001644YS02001647    1.00   0.00  0.07  0.00  0.93  0.00  0.00  0.00  0.00  0.00
  YS02001745YS02001748    1.00   0.00  0.00  0.00  0.50  0.17  0.00  0.33  0.50  0.00
  YS02001748YS02001751    1.00   0.00  0.00  0.00  0.97  0.03  0.00  0.00  0.29  0.00
  YS02001751YS02001754    1.00   0.00  0.00  0.00  0.93  0.00  0.00  0.07  0.02  0.00
  YS02001754YS02001757    1.00   0.00  0.00  0.00  1.00  0.00  0.00  0.00  0.26  0.00
  YS02001882YS02001884    1.00   0.05  0.00  0.00  0.94  0.00  0.00  0.00  0.00  0.00
  YS02001884YS02001887    1.00   0.02  0.01  0.00  0.96  0.00  0.00  0.00  0.00  0.00
  YS02001890YS02001895    1.00   0.00  0.06  0.00  0.94  0.00  0.00  0.00  0.00  0.00
  YS02001895YS02001898    1.00   0.06  0.00  0.00  0.93  0.00  0.01  0.00  0.00  0.00
  YS02001898YS02001901    1.00   0.06  0.00  0.00  0.94  0.00  0.00  0.00  0.02  0.00
  YS02001901YS02001904    1.00   0.06  0.00  0.00  0.94  0.00  0.00  0.00  0.00  0.00
  YS02001904YS02001907    1.00   0.00  0.06  0.00  0.94  0.00  0.00  0.00  0.00  0.00
  YS02001887YS02001890    1.00   0.00  0.00  0.00  0.99  0.00  0.01  0.00  0.00  0.00
  YS02001652YS02001649    1.00   0.00  0.00  0.00  1.00  0.00  0.00  0.00  0.26  0.00
  YS02001655YS02001652    1.00   0.00  0.00  0.00  0.93  0.00  0.00  0.07  0.02  0.00
  YS02001658YS02001655    1.00   0.00  0.05  0.00  0.92  0.03  0.00  0.00  0.24  0.00
  YS02001661YS02001658    1.00   0.05  0.00  0.00  0.66  0.29  0.00  0.00  0.73  0.00
  YS02001664YS02001661    1.00   0.04  0.00  0.00  0.79  0.17  0.00  0.00  0.86  0.00
  YSB1154YSB6556          1.00   0.04  0.00  0.00  0.96  0.00  0.00  0.00  0.02  0.00
  YSB1174YSB1171          1.00   0.01  0.02  0.00  0.97  0.00  0.00  0.00  0.00  0.00
  YSB1171HS02004479       1.00   0.01  0.00  0.00  0.98  0.00  0.00  0.01  0.13  0.00
  HS02004881HS02006253    1.00   0.01  0.00  0.00  0.80  0.02  0.00  0.17  0.60  0.00
  YS02001793JiankangQianchi    1.00   0.00  0.00  0.00  0.24  0.76  0.00  0.00  0.28  0.00
  YS02001757CaochengTiaoxuchi    1.00   0.00  0.08  0.00  0.92  0.00  0.00  0.00  0.00  0.00
  WSF200WS02003060        1.00   0.00  0.05  0.00  0.46  0.49  0.00  0.00  0.20  0.00
  1                       1.00   0.00  0.00  0.00  0.00  1.00  0.00  0.00  0.40  0.00
  2                       1.00   0.61  0.00  0.00  0.00  0.39  0.00  0.00  0.11  0.00
  3                       1.00   0.22  0.00  0.00  0.00  0.78  0.00  0.00  0.07  0.00
  4                       1.00   1.00  0.00  0.00  0.00  0.00  0.00  0.00  0.00  0.00
  
  
  *************************
  Conduit Surcharge Summary
  *************************
  
  ----------------------------------------------------------------------------
                                                           Hours        Hours 
                         --------- Hours Full --------   Above Full   Capacity
  Conduit                Both Ends  Upstream  Dnstream   Normal Flow   Limited
  ----------------------------------------------------------------------------
  WS02006229WS02006228        1.49      1.86      1.49      4.29         1.49
  WS02006256WS02006235        5.67      5.67      7.16      1.94         0.01
  WS02006252WS02006251        1.21      1.21      2.48      2.15         0.01
  WS02006251WS02006249        0.01      0.01      0.01      1.19         0.01
  WS02006249WS02006248        0.01      0.01      0.01      4.39         0.01
  WS02006247WS02006245        0.01      0.01      0.01      4.78         0.01
  WS02006245WS02006243        0.01      0.01      0.01      0.04         0.01
  WS02006243WS02006242        0.01      0.01      0.80      0.01         0.01
  WS02006242WS02006240        0.04      0.04      1.45      2.49         0.01
  WS02006240WS02006239        0.14      0.14      0.23      0.05         0.01
  WS02006239WS02006238        1.20      1.20      1.37      0.17         0.14
  WS02006238WS02006235        1.09      1.09      1.86      0.01         0.01
  WS02006235WS02006234        0.06      0.06      0.72      5.70         0.01
  WS02006234WS02006232        0.24      0.24      2.01      0.01         0.01
  WS02006232WS02006231        0.01      0.01      2.01      0.01         0.01
  WS02006231WS02006230        0.01      0.01      0.01      5.69         0.01
  WS02006230WS02006229        3.09      3.87      3.09      5.80         3.09
  WS02006228WS02006109        1.66      2.49      1.66      5.17         1.66
  WS02006112WS02006115        0.01      0.01      0.11      0.01         0.01
  WS02006111WS02006112        0.01      0.01      4.48      0.01         0.01
  WS02006110WS02006113        0.01      0.01      2.17      0.01         0.01
  WS02006109WS02006110        0.01      0.01      2.49      0.01         0.01
  WS02004405WS02004406        0.01      0.01      0.01      0.01         0.01
  WS02004404WS02004405        0.01      0.01      0.01      5.58         0.01
  WS02003072WS02003073        0.01      0.01      0.01      4.62         0.01
  YS02001759YS02001757        1.06      1.06      3.34      0.01         0.01
  YS02001762YS02001759        0.14      0.14      1.06      0.01         0.01
  YS02001765YS02001762        0.01      0.01      0.14      0.01         0.01
  YS02001649YS02001757        0.37      0.37      3.34      0.01         0.01
  YS02163601YS02164001        0.01      0.01      0.32      0.01         0.01
  YS02001647YS02001649        0.01      0.01      0.37      0.01         0.01
  YS02001633YS02163601        0.01      0.01      0.32      0.01         0.01
  YS02001754YS02001757        0.01      0.01      3.34      0.01         0.01
  YS02001652YS02001649        0.01      0.01      0.37      0.01         0.01
  YS02001793JiankangQianchi        0.01      0.01      1.25      0.01         0.01
  YS02001757CaochengTiaoxuchi        0.01      0.01      3.34      0.01         0.01
  
  
  ***************
  Pumping Summary
  ***************
  
  ---------------------------------------------------------------------------------------------------------
                                                  Min       Avg       Max     Total     Power    % Time Off
                        Percent   Number of      Flow      Flow      Flow    Volume     Usage    Pump Curve
  Pump                 Utilized   Start-Ups       LPS       LPS       LPS  10^6 ltr     Kw-hr    Low   High
  ---------------------------------------------------------------------------------------------------------
  CC-Pump-1               70.30           3      0.00    137.57    200.00     2.700     10.79    0.0   72.1
  CC-Pump-2               53.28           6      0.00    140.09    200.00     2.100      8.67    0.0   76.0
  JK-Pump-1               82.96           6      0.00    123.38    300.00     2.222     41.86    0.0    0.0
  JK-Pump-2               74.46           6      0.00    118.18    300.00     1.806     33.23    0.0    0.0
  XR-Pump-1               68.08           8      0.00     56.59     95.00     1.111     10.44    0.0    0.0
  XR-Pump-2               82.96           7      0.00     69.14     95.00     1.681     13.89    0.0    0.0
  XR-Pump-3               74.48           7      0.00     70.91     95.00     1.511     14.01    0.0    0.0
  XR-Pump-4               72.32           7      0.00     70.86     95.00     1.340     10.01    0.0    0.0
  

  Analysis begun on:  Fri Dec 24 13:57:16 2021
  Analysis ended on:  Fri Dec 24 13:57:19 2021
  Total elapsed time: 00:00:03