
  EPA STORM WATER MANAGEMENT MODEL - VERSION 5.1 (Build 5.3.0.dev0)
  --------------------------------------------------------------

  WARNING 04: minimum elevation drop used for Conduit WS02004404WS02004405
  WARNING 03: negative offset ignored for Link YS02001904YS02001907
  
  *********************************************************
  NOTE: The summary statistics displayed in this report are
  based on results found at every computational time step,  
  not just on results from each reporting time step.
  *********************************************************
  
  ****************
  Analysis Options
  ****************
  Flow Units ............... LPS
  Process Models:
    Rainfall/Runoff ........ YES
    RDII ................... NO
    Snowmelt ............... NO
    Groundwater ............ NO
    Flow Routing ........... YES
    Ponding Allowed ........ NO
    Water Quality .......... NO
  Infiltration Method ...... HORTON
  Flow Routing Method ...... DYNWAVE
  Surcharge Method ......... EXTRAN
  Starting Date ............ 08/28/2015 08:00:00
  Ending Date .............. 08/28/2015 15:50:00
  Antecedent Dry Days ...... 8.0
  Report Time Step ......... 00:01:00
  Wet Time Step ............ 00:01:00
  Dry Time Step ............ 00:01:00
  Routing Time Step ........ 5.00 sec
  Variable Time Step ....... YES
  Maximum Trials ........... 8
  Number of Threads ........ 4
  Head Tolerance ........... 0.001500 m
  
  
  **************************        Volume         Depth
  Runoff Quantity Continuity     hectare-m            mm
  **************************     ---------       -------
  Total Precipitation ......         1.890         4.138
  Evaporation Loss .........         0.000         0.000
  Infiltration Loss ........         0.466         1.020
  Surface Runoff ...........         0.625         1.369
  Final Storage ............         0.799         1.749
  Continuity Error (%) .....        -0.017
  
  
  **************************        Volume        Volume
  Flow Routing Continuity        hectare-m      10^6 ltr
  **************************     ---------     ---------
  Dry Weather Inflow .......         0.616         6.165
  Wet Weather Inflow .......         0.625         6.249
  Groundwater Inflow .......         0.000         0.000
  RDII Inflow ..............         0.000         0.000
  External Inflow ..........         0.102         1.024
  External Outflow .........         1.455        14.550
  Flooding Loss ............         0.000         0.000
  Evaporation Loss .........         0.000         0.000
  Exfiltration Loss ........         0.000         0.000
  Initial Stored Volume ....         0.076         0.761
  Final Stored Volume ......         0.126         1.256
  Continuity Error (%) .....       -11.321
  
  
  *************************
  Highest Continuity Errors
  *************************
  Node HS02004842 (37.09%)
  Node JK-storage (-36.26%)
  Node YS02001884 (31.33%)
  Node YS02001774 (17.04%)
  Node YSB1171 (10.74%)
  
  
  ***************************
  Time-Step Critical Elements
  ***************************
  Link WS02006252WS02006251 (73.31%)
  Link 3 (17.23%)
  Link WS02006280WS02006229 (3.14%)
  Link WS02006238WS02006235 (2.31%)
  
  
  ********************************
  Highest Flow Instability Indexes
  ********************************
  Link WS02006113WS02006111 (52)
  Link WS02006111WS02006112 (19)
  Link YS02001754YS02001757 (3)
  Link YS02001762YS02001759 (3)
  Link YS02001751YS02001754 (3)
  
  
  *************************
  Routing Time Step Summary
  *************************
  Minimum Time Step           :     0.35 sec
  Average Time Step           :     0.98 sec
  Maximum Time Step           :     5.00 sec
  Percent in Steady State     :    -0.00
  Average Iterations per Step :     2.05
  Percent Not Converging      :     0.03
  
  
  ***************************
  Subcatchment Runoff Summary
  ***************************
  
  ------------------------------------------------------------------------------------------------------------------------------
                            Total      Total      Total      Total     Imperv       Perv      Total       Total     Peak  Runoff
                           Precip      Runon       Evap      Infil     Runoff     Runoff     Runoff      Runoff   Runoff   Coeff
  Subcatchment                 mm         mm         mm         mm         mm         mm         mm    10^6 ltr      LPS
  ------------------------------------------------------------------------------------------------------------------------------
  sub0                       4.14       0.00       0.00       0.29       2.58       0.00       2.58        0.00     0.74   0.624
  sub1                       4.14       0.00       0.00       0.46       2.43       0.00       2.43        0.02     3.84   0.587
  sub2                       4.14       0.00       0.00       1.53       1.70       0.00       1.70        0.02     3.39   0.412
  sub3                       4.14       0.00       0.00       1.53       1.67       0.00       1.67        0.04     6.95   0.404
  sub4                       4.14       0.00       0.00       0.46       2.30       0.00       2.30        0.05     7.78   0.557
  sub5                       4.14       0.00       0.00       0.29       2.54       0.00       2.54        0.03     6.83   0.613
  sub7                       4.14       0.00       0.00       0.37       2.51       0.00       2.51        0.01     2.42   0.607
  sub8                       4.14       0.00       0.00       0.37       2.50       0.00       2.50        0.02     4.26   0.605
  sub9                       4.14       0.00       0.00       0.37       2.50       0.00       2.50        0.01     3.16   0.604
  sub10                      4.14       0.00       0.00       0.33       2.52       0.00       2.52        0.03     6.82   0.608
  sub11                      4.14       0.00       0.00       0.33       2.53       0.00       2.53        0.03     8.02   0.612
  sub12                      4.14       0.00       0.00       0.54       2.41       0.00       2.41        0.02     6.83   0.583
  sub14                      4.14       0.00       0.00       0.37       2.50       0.00       2.50        0.02     6.17   0.604
  sub15                      4.14       0.00       0.00       1.24       1.92       0.00       1.92        0.03     8.36   0.464
  sub16                      4.14       0.00       0.00       1.37       1.85       0.00       1.85        0.02     5.99   0.448
  sub17                      4.14       0.00       0.00       1.32       1.88       0.00       1.88        0.02     4.84   0.454
  sub22                      4.14       0.00       0.00       1.78       1.57       0.00       1.57        0.10    27.45   0.380
  sub23                      4.14       0.00       0.00       1.53       1.74       0.00       1.74        0.08    23.39   0.420
  sub60                      4.14       0.00       0.00       0.50       1.49       0.00       1.49        0.45    38.23   0.360
  sub61                      4.14       0.00       0.00       0.70       1.65       0.00       1.65        0.51    48.94   0.398
  sub62                      4.14       0.00       0.00       0.33       1.75       0.00       1.75        0.54    49.85   0.422
  sub63                      4.14       0.00       0.00       1.20       1.48       0.00       1.48        0.45    45.77   0.359
  sub64                      4.14       0.00       0.00       0.62       1.42       0.00       1.42        0.43    36.23   0.343
  sub65                      4.14       0.00       0.00       0.54       1.43       0.00       1.43        0.44    36.68   0.346
  sub66                      4.14       0.00       0.00       1.20       1.25       0.00       1.25        0.38    33.51   0.302
  sub67                      4.14       0.00       0.00       0.33       1.98       0.00       1.98        0.61    64.41   0.478
  sub68                      4.14       0.00       0.00       0.58       1.76       0.00       1.76        0.54    54.19   0.426
  sub69                      4.14       0.00       0.00       0.62       1.96       0.00       1.96        0.46    54.10   0.475
  sub70                      4.14       2.00       0.00       2.09       2.24       0.00       2.24        0.51    39.90   0.365
  sub71                      4.14       0.00       0.00       0.33       1.65       0.00       1.65        0.39    34.54   0.399
  sub72                      4.14       0.00       0.00       0.29       1.09       0.00       1.09        0.22    15.48   0.263
  sub73                      4.14       2.18       0.00       2.15       2.17       0.00       2.17        0.51    34.04   0.344
  sub74                      4.14       0.00       0.00       3.10       0.60       0.00       0.60        0.24    30.24   0.145
  
  
  ******************
  Node Depth Summary
  ******************
  
  ---------------------------------------------------------------------------------
                                 Average  Maximum  Maximum  Time of Max    Reported
                                   Depth    Depth      HGL   Occurrence   Max Depth
  Node                 Type       Meters   Meters   Meters  days hr:min      Meters
  ---------------------------------------------------------------------------------
  WS02001211           JUNCTION     0.67     0.78     5.62     0  04:40        0.78
  WS02001212           JUNCTION     0.39     0.49     5.55     0  04:40        0.49
  WS02001213           JUNCTION     0.61     0.73     5.49     0  04:40        0.73
  WS02003069           JUNCTION     0.42     0.53     5.12     0  04:41        0.53
  WS02003072           JUNCTION     0.48     0.60     4.97     0  04:42        0.60
  WS02003073           JUNCTION     0.29     0.36     4.43     0  04:42        0.36
  WS02003060           JUNCTION     0.37     0.47     5.40     0  04:41        0.47
  WS02003066           JUNCTION     0.21     0.27     5.83     0  03:02        0.27
  WS02003059           JUNCTION     0.67     0.78     5.47     0  04:41        0.78
  WS02003067           JUNCTION     0.54     0.66     5.98     0  03:02        0.66
  WS02004401           JUNCTION     0.62     0.77     6.77     0  02:58        0.77
  WS02004402           JUNCTION     0.65     0.80     6.76     0  02:58        0.80
  WS02004403           JUNCTION     0.68     0.82     6.75     0  02:58        0.82
  WS02004404           JUNCTION     0.75     0.90     6.75     0  02:59        0.90
  WS02004406           JUNCTION     0.76     0.90     6.73     0  02:59        0.90
  WS02004409           JUNCTION     0.44     0.59     6.36     0  03:00        0.59
  WS02004410           JUNCTION     0.46     0.61     6.33     0  03:01        0.61
  WS02004411           JUNCTION     0.48     0.62     6.30     0  03:01        0.62
  WS02004412           JUNCTION     0.50     0.63     6.27     0  03:01        0.63
  WS02004413           JUNCTION     0.66     0.80     6.27     0  03:02        0.80
  WS02004405           JUNCTION     0.75     0.89     6.74     0  02:59        0.89
  WS02006109           JUNCTION     0.69     0.87     7.49     0  02:54        0.87
  WS02006110           JUNCTION     0.69     0.85     7.44     0  02:54        0.85
  WS02006111           JUNCTION     0.20     0.26     6.97     0  02:55        0.26
  WS02006112           JUNCTION     0.78     0.95     6.84     0  02:58        0.95
  WS02006113           JUNCTION     0.30     0.41     7.30     0  02:54        0.41
  WS02006115           JUNCTION     0.51     0.67     6.80     0  02:58        0.67
  WS02006116           JUNCTION     0.59     0.75     6.79     0  02:58        0.75
  WS02006230           JUNCTION     0.64     0.89     7.64     0  02:54        0.89
  WS02006231           JUNCTION     0.43     0.60     7.73     0  03:35        0.60
  WS02006232           JUNCTION     0.56     0.75     7.79     0  03:35        0.75
  WS02006234           JUNCTION     0.47     0.71     7.87     0  03:35        0.71
  WS02006235           JUNCTION     0.51     0.75     7.91     0  03:35        0.75
  WS02006238           JUNCTION     0.53     0.78     7.92     0  03:35        0.78
  WS02006240           JUNCTION     0.43     0.71     8.00     0  03:35        0.71
  WS02006242           JUNCTION     0.49     0.78     8.05     0  03:35        0.78
  WS02006243           JUNCTION     0.37     0.67     8.09     0  03:35        0.67
  WS02006245           JUNCTION     0.36     0.64     8.13     0  03:35        0.64
  WS02006247           JUNCTION     0.38     0.65     8.15     0  03:35        0.65
  WS02006248           JUNCTION     0.33     0.59     8.18     0  03:35        0.59
  WS02006249           JUNCTION     0.37     0.60     8.20     0  03:36        0.60
  WS02006239           JUNCTION     0.49     0.75     7.96     0  03:35        0.75
  WS02006251           JUNCTION     0.36     0.62     8.29     0  03:36        0.62
  WS02006252           JUNCTION     0.33     0.58     8.83     0  02:50        0.58
  WS02006253           JUNCTION     0.38     0.65     8.29     0  03:36        0.65
  WS02006256           JUNCTION     0.91     1.21     8.14     0  03:35        1.21
  WS02004138           JUNCTION     0.16     0.19     7.44     0  02:22        0.19
  WS02004407           JUNCTION     0.20     0.27     6.58     0  02:59        0.27
  WS02006228           JUNCTION     0.68     0.89     7.54     0  02:54        0.89
  WS02006229           JUNCTION     0.65     0.88     7.57     0  02:54        0.88
  WS02006280           JUNCTION     0.05     0.11     8.38     0  02:26        0.11
  WS02006284           JUNCTION     0.33     0.43     8.83     0  02:26        0.43
  WS02006287           JUNCTION     0.07     0.16     9.11     0  02:25        0.16
  WSF200               JUNCTION     0.19     0.27     5.50     0  03:01        0.27
  HS02004901           JUNCTION     0.10     0.18    10.01     0  02:23        0.18
  HS02004881           JUNCTION     0.00     0.02     9.04     0  02:24        0.02
  HS02004876           JUNCTION     0.03     0.08     9.11     0  02:24        0.08
  HS02004870           JUNCTION     0.01     0.03     9.31     0  02:25        0.03
  HS02004862           JUNCTION     0.01     0.03     9.41     0  02:26        0.03
  HS02004856           JUNCTION     0.07     0.09     9.52     0  02:25        0.09
  HS02004852           JUNCTION     0.00     0.02     9.53     0  02:27        0.02
  HS02004848           JUNCTION     0.00     0.02     9.62     0  02:24        0.02
  HS02004842           JUNCTION     0.32     0.35     9.62     0  02:24        0.35
  HS02004837           JUNCTION     0.02     0.04     9.62     0  02:24        0.04
  HS02004830           JUNCTION     0.03     0.05     9.52     0  02:24        0.05
  HS02004824           JUNCTION     0.02     0.03     9.43     0  02:28        0.03
  HS02004817           JUNCTION     0.41     0.48     9.33     0  02:26        0.48
  HS02004807           JUNCTION     0.10     0.16     9.33     0  02:26        0.16
  HS02004802           JUNCTION     0.14     0.20     9.33     0  02:26        0.20
  HS02004799           JUNCTION     0.09     0.19     9.40     0  02:24        0.19
  HS02004792           JUNCTION     0.02     0.06     9.59     0  02:23        0.06
  HS02004788           JUNCTION     0.01     0.05     9.95     0  02:24        0.05
  HS02004785           JUNCTION     0.03     0.10    10.00     0  02:24        0.10
  HS02004777           JUNCTION     0.12     0.20    10.00     0  02:24        0.20
  HS02004770           JUNCTION     0.09     0.17    10.01     0  02:24        0.17
  HS02004480           JUNCTION     0.05     0.14     9.38     0  02:24        0.14
  HS02004479           JUNCTION     0.09     0.18     9.38     0  02:24        0.18
  HS02004478           JUNCTION     0.04     0.09     9.32     0  02:25        0.09
  YS02001745           JUNCTION     0.06     0.08     7.60     0  03:01        0.08
  YS02001748           JUNCTION     0.07     0.12     7.19     0  03:13        0.11
  YS02001751           JUNCTION     0.19     0.32     7.20     0  03:15        0.32
  YS02001754           JUNCTION     0.44     0.60     7.21     0  03:27        0.60
  YS02001762           JUNCTION     0.64     0.80     7.20     0  03:12        0.80
  YS02001765           JUNCTION     0.59     0.75     7.20     0  03:17        0.75
  YS02001767           JUNCTION     0.55     0.71     7.20     0  03:10        0.71
  YS02001770           JUNCTION     0.55     0.70     7.20     0  03:10        0.70
  YS02001774           JUNCTION     0.61     0.78     7.20     0  03:11        0.77
  YS02001779           JUNCTION     0.37     0.51     7.20     0  03:11        0.51
  YS02001882           JUNCTION     0.22     0.33     7.04     0  03:01        0.33
  YS02001884           JUNCTION     0.32     0.43     7.04     0  03:01        0.43
  YS02001759           JUNCTION     0.67     0.83     7.20     0  03:14        0.83
  YS02001887           JUNCTION     0.39     0.50     7.04     0  03:01        0.50
  YS02001890           JUNCTION     0.42     0.54     7.04     0  03:01        0.54
  YS02001898           JUNCTION     0.20     0.29     7.03     0  03:01        0.29
  YS02001901           JUNCTION     0.31     0.42     7.03     0  03:02        0.42
  YS02001904           JUNCTION     0.29     0.39     7.02     0  03:02        0.39
  YS02001907           JUNCTION     0.62     0.74     7.03     0  03:01        0.74
  YS02001910           JUNCTION     0.41     0.52     7.03     0  03:01        0.52
  YS02001915           JUNCTION     0.21     0.31     7.02     0  03:02        0.31
  YS02001918           JUNCTION     0.06     0.07     7.14     0  03:05        0.07
  YS02001619           JUNCTION     0.16     0.27     7.20     0  03:14        0.27
  YS02001629           JUNCTION     0.50     0.65     7.20     0  03:14        0.65
  YS02001641           JUNCTION     0.60     0.76     7.20     0  03:13        0.76
  YS02001644           JUNCTION     0.61     0.77     7.20     0  03:12        0.77
  YS02001652           JUNCTION     0.45     0.60     7.20     0  03:11        0.60
  YS02001655           JUNCTION     0.22     0.35     7.20     0  03:11        0.35
  YS02001920           JUNCTION     0.15     0.16     7.17     0  03:04        0.16
  YS02001923           JUNCTION     0.05     0.06     7.32     0  03:02        0.06
  YS02001926           JUNCTION     0.11     0.13     7.58     0  03:02        0.13
  YS02001929           JUNCTION     0.05     0.06     7.76     0  03:01        0.06
  YS02001658           JUNCTION     0.06     0.10     7.24     0  02:57        0.10
  YS02001661           JUNCTION     0.12     0.16     7.57     0  02:57        0.16
  YS02001664           JUNCTION     0.05     0.08     8.01     0  02:57        0.08
  YS02001622           JUNCTION     0.18     0.30     7.20     0  03:15        0.30
  YS02001633           JUNCTION     0.59     0.74     7.20     0  03:12        0.74
  YS02001649           JUNCTION     0.64     0.81     7.20     0  03:12        0.81
  YS02001757           JUNCTION     0.77     0.94     7.20     0  03:16        0.94
  YS02001895           JUNCTION     0.19     0.29     7.04     0  03:01        0.29
  YS02001625           JUNCTION     0.45     0.60     7.20     0  03:14        0.60
  YS02163301           JUNCTION     0.53     0.68     7.20     0  03:14        0.68
  YS02163601           JUNCTION     0.64     0.80     7.20     0  03:13        0.80
  YS02164001           JUNCTION     0.58     0.74     7.20     0  03:13        0.74
  YS02001647           JUNCTION     0.44     0.59     7.20     0  03:12        0.59
  YSB1154              JUNCTION     0.23     0.33     9.39     0  02:24        0.33
  YSB6556              JUNCTION     0.12     0.22     9.39     0  02:24        0.22
  YSB1174              JUNCTION     0.18     0.28     9.39     0  02:24        0.28
  YSB1171              JUNCTION     0.38     0.48     9.39     0  02:24        0.48
  YS02006553           JUNCTION     0.62     0.74     7.02     0  03:02        0.74
  YS02006561           JUNCTION     0.11     0.16     6.82     0  03:02        0.16
  YS02006556           JUNCTION     0.60     0.71     7.02     0  03:02        0.71
  YS02006558           JUNCTION     0.64     0.76     7.02     0  03:02        0.76
  YS02001783           JUNCTION     0.18     0.28     6.42     0  03:02        0.28
  YS02001784           JUNCTION     0.21     0.31     6.38     0  03:03        0.31
  YS02001786           JUNCTION     0.18     0.27     6.30     0  03:03        0.27
  YS02001788           JUNCTION     0.13     0.19     6.17     0  03:03        0.19
  YS02001790           JUNCTION     0.16     0.23     5.88     0  03:03        0.23
  YS02001791           JUNCTION     0.10     0.16     5.63     0  03:03        0.16
  YS02001793           JUNCTION     0.07     0.10     4.93     0  02:54        0.10
  WS02004139           JUNCTION     0.61     0.73     5.64     0  04:40        0.73
  WSC                  OUTFALL      0.29     0.36     1.03     0  04:43        0.36
  3                    OUTFALL      0.04     0.20     6.20     0  03:35        0.20
  4                    OUTFALL      0.01     0.10     7.10     0  03:36        0.10
  5                    OUTFALL      0.00     0.00     5.00     0  00:00        0.00
  JK-storage           STORAGE      0.38     4.09     4.89     0  03:22        4.08
  CC-storage           STORAGE      0.01     0.07     7.07     0  03:22        0.07
  XR-storage           STORAGE      0.58     5.00     3.00     0  00:00        4.96
  
  
  *******************
  Node Inflow Summary
  *******************
  
  -------------------------------------------------------------------------------------------------
                                  Maximum  Maximum                  Lateral       Total        Flow
                                  Lateral    Total  Time of Max      Inflow      Inflow     Balance
                                   Inflow   Inflow   Occurrence      Volume      Volume       Error
  Node                 Type           LPS      LPS  days hr:min    10^6 ltr    10^6 ltr     Percent
  -------------------------------------------------------------------------------------------------
  WS02001211           JUNCTION      7.35   387.48     0  04:40       0.207        7.33       0.397
  WS02001212           JUNCTION      0.00   387.29     0  04:40           0         7.3       0.275
  WS02001213           JUNCTION      0.00   387.20     0  04:40           0        7.28       0.225
  WS02003069           JUNCTION      0.32   810.42     0  04:41     0.00902        13.4       0.170
  WS02003072           JUNCTION      0.00   810.41     0  04:41           0        13.3       0.224
  WS02003073           JUNCTION      1.82   812.22     0  04:42      0.0514        13.4       0.246
  WS02003060           JUNCTION     16.53   810.09     0  04:40       0.466        13.4       0.165
  WS02003066           JUNCTION      0.00   430.94     0  03:02           0        5.69       0.062
  WS02003059           JUNCTION      0.00   387.15     0  04:40           0        7.27       0.441
  WS02003067           JUNCTION      0.00   430.86     0  03:02           0         5.7       0.137
  WS02004401           JUNCTION      0.00   441.23     0  02:57           0        5.89       0.299
  WS02004402           JUNCTION      0.00   439.65     0  02:57           0        5.87       0.288
  WS02004403           JUNCTION      0.00   438.89     0  02:58           0        5.86       0.267
  WS02004404           JUNCTION      0.16   438.42     0  02:58     0.00457        5.84       0.208
  WS02004406           JUNCTION      0.00   437.92     0  02:58           0        5.82       0.508
  WS02004409           JUNCTION      0.00   437.81     0  02:59           0        5.78       0.207
  WS02004410           JUNCTION      0.00   435.41     0  03:00           0        5.77       0.243
  WS02004411           JUNCTION      0.00   433.61     0  03:00           0        5.75       0.257
  WS02004412           JUNCTION      0.00   432.17     0  03:01           0        5.74       0.288
  WS02004413           JUNCTION      0.00   431.32     0  03:01           0        5.72       0.441
  WS02004405           JUNCTION      0.04   438.05     0  02:58     0.00107        5.83       0.310
  WS02006109           JUNCTION      1.23   451.07     0  02:54      0.0347        5.97       0.296
  WS02006110           JUNCTION      0.00   451.19     0  02:54           0        5.95       0.270
  WS02006111           JUNCTION      0.00   464.02     0  02:54           0        5.93       0.051
  WS02006112           JUNCTION      4.84   456.19     0  02:55      0.0161        5.94       0.422
  WS02006113           JUNCTION      0.00   450.97     0  02:54           0        5.94       0.116
  WS02006115           JUNCTION      0.00   450.54     0  02:55           0        5.92       0.255
  WS02006116           JUNCTION      0.00   444.29     0  02:55           0         5.9       0.250
  WS02006230           JUNCTION     10.28   400.09     0  03:35        0.29        5.34       0.167
  WS02006231           JUNCTION      0.00   389.88     0  03:32           0        5.06       0.207
  WS02006232           JUNCTION      0.00   389.95     0  03:32           0        5.07       0.254
  WS02006234           JUNCTION      0.00   390.69     0  03:32           0        5.08       0.094
  WS02006235           JUNCTION      0.00   390.80     0  03:32           0        5.11       0.159
  WS02006238           JUNCTION      0.00   306.65     0  04:22           0         3.5       0.147
  WS02006240           JUNCTION      0.00   315.00     0  02:51           0        3.48       0.179
  WS02006242           JUNCTION      0.00   324.50     0  02:51           0        3.48       0.227
  WS02006243           JUNCTION      0.00   334.08     0  02:51           0        3.46      -0.249
  WS02006245           JUNCTION      0.00   341.55     0  02:50           0        3.47       0.166
  WS02006247           JUNCTION      0.00   348.32     0  02:50           0        3.47       0.093
  WS02006248           JUNCTION      0.00   354.30     0  02:50           0        3.47       0.018
  WS02006249           JUNCTION      0.00   406.15     0  03:37           0        3.65       0.174
  WS02006239           JUNCTION      0.00   308.48     0  04:22           0        3.49       0.123
  WS02006251           JUNCTION      0.08   409.73     0  04:21     0.00217         3.7       0.109
  WS02006252           JUNCTION      0.00   400.00     0  03:30           0        3.57       0.007
  WS02006253           JUNCTION      0.74    39.31     0  04:22     0.00209       0.132       1.025
  WS02006256           JUNCTION      0.00   600.00     0  03:30           0        2.68       0.098
  WS02004138           JUNCTION      0.00   380.00     0  02:20           0        7.15       0.062
  WS02004407           JUNCTION      0.00   437.87     0  02:59           0        5.79       0.094
  WS02006228           JUNCTION      0.00   449.91     0  02:54           0        5.95       0.202
  WS02006229           JUNCTION      0.00   449.89     0  02:53           0        5.96       0.170
  WS02006280           JUNCTION      0.00   113.60     0  02:26           0       0.631       0.011
  WS02006284           JUNCTION      0.10   113.60     0  02:25      0.0027       0.632       0.182
  WS02006287           JUNCTION      0.00   113.51     0  02:25           0        0.63       0.110
  WSF200               JUNCTION      0.00   430.92     0  03:02           0        5.69       0.056
  HS02004901           JUNCTION      5.99     5.99     0  02:15      0.0194      0.0195       9.873
  HS02004881           JUNCTION      2.42    20.18     0  02:24     0.00846      0.0874       0.216
  HS02004876           JUNCTION      3.84    17.95     0  02:24      0.0161      0.0795       0.656
  HS02004870           JUNCTION      4.26    14.19     0  02:24       0.016      0.0635       0.167
  HS02004862           JUNCTION      3.59    10.22     0  02:25      0.0215      0.0476       0.346
  HS02004856           JUNCTION      3.16     6.66     0  02:24       0.012      0.0276       5.486
  HS02004852           JUNCTION      0.00     3.71     0  02:25           0      0.0156       0.307
  HS02004848           JUNCTION      6.95     6.95     0  02:27      0.0376      0.0376       0.112
  HS02004842           JUNCTION      0.00     4.47     0  00:03           0      0.0351      58.950
  HS02004837           JUNCTION     13.17    16.26     0  02:22       0.207       0.229       0.357
  HS02004830           JUNCTION      0.15    16.40     0  02:24     0.00423       0.219       0.565
  HS02004824           JUNCTION      7.83    24.13     0  02:28      0.0494       0.267       0.202
  HS02004817           JUNCTION      0.60    24.73     0  02:28      0.0169       0.284       6.235
  HS02004807           JUNCTION      8.02    32.05     0  02:26      0.0294       0.297       1.445
  HS02004802           JUNCTION      0.00    32.12     0  02:28           0       0.292       1.410
  HS02004799           JUNCTION      6.17    69.38     0  02:22      0.0238       0.307       0.737
  HS02004792           JUNCTION     27.73    63.38     0  02:22       0.107       0.284       0.147
  HS02004788           JUNCTION     10.03    37.07     0  02:24      0.0801       0.178       0.221
  HS02004785           JUNCTION      0.15    27.38     0  02:23     0.00423      0.0997       0.481
  HS02004777           JUNCTION      0.03    27.64     0  02:21    0.000846      0.0998       5.460
  HS02004770           JUNCTION     23.39    28.52     0  02:18      0.0828       0.101       3.178
  HS02004480           JUNCTION      0.00    81.67     0  02:23           0       0.354       0.191
  HS02004479           JUNCTION      0.00    12.56     0  02:26           0      0.0594       1.240
  HS02004478           JUNCTION      0.00   113.51     0  02:25           0       0.631       0.105
  YS02001745           JUNCTION     38.23    38.23     0  03:01       0.451       0.451       0.077
  YS02001748           JUNCTION      0.04    38.26     0  03:01     0.00127       0.452       0.038
  YS02001751           JUNCTION      0.01    64.54     0  04:40     0.00031       0.569       0.221
  YS02001754           JUNCTION      0.26   203.88     0  04:48     0.00733       0.994       1.164
  YS02001762           JUNCTION      0.00    53.61     0  03:02           0       0.592       2.370
  YS02001765           JUNCTION      0.00    75.57     0  04:29           0       0.581       2.570
  YS02001767           JUNCTION      0.54    62.81     0  04:52      0.0151       0.585       3.300
  YS02001770           JUNCTION     50.00    58.36     0  02:36       0.541       0.562       2.967
  YS02001774           JUNCTION      0.00    31.16     0  02:32           0      0.0859      20.533
  YS02001779           JUNCTION      0.01    16.25     0  02:33    0.000141      0.0507      11.019
  YS02001882           JUNCTION      0.00     2.12     0  02:13           0     0.00339      72.935
  YS02001884           JUNCTION      0.00     6.35     0  02:08           0      0.0138      45.620
  YS02001759           JUNCTION     48.98   105.44     0  03:02       0.508        1.07       1.471
  YS02001887           JUNCTION     64.86    64.86     0  02:54       0.623       0.629       1.057
  YS02001890           JUNCTION      0.00    64.55     0  02:57           0       0.611       1.200
  YS02001898           JUNCTION      0.00    64.33     0  03:00           0         0.6       0.304
  YS02001901           JUNCTION      0.00    64.32     0  03:01           0         0.6       0.831
  YS02001904           JUNCTION      0.00    64.21     0  03:02           0         0.6       0.776
  YS02001907           JUNCTION      0.00   116.88     0  03:02           0        1.28       1.685
  YS02001910           JUNCTION      0.00    52.77     0  03:01           0       0.687       1.394
  YS02001915           JUNCTION     34.56    52.70     0  03:01        0.39       0.691       0.565
  YS02001918           JUNCTION      0.00    18.35     0  03:04           0       0.301       0.273
  YS02001619           JUNCTION     33.51    33.51     0  03:01       0.383       0.383       0.141
  YS02001629           JUNCTION      0.00    36.25     0  02:41           0       0.367       1.519
  YS02001641           JUNCTION      0.00    71.02     0  03:31           0       0.777       1.619
  YS02001644           JUNCTION     36.27   104.85     0  02:59       0.432        1.19       1.281
  YS02001652           JUNCTION      0.00    62.66     0  04:45           0       0.511       1.812
  YS02001655           JUNCTION      0.15    45.93     0  02:57     0.00434        0.46       0.666
  YS02001920           JUNCTION      2.87    18.37     0  03:02      0.0809       0.303       0.562
  YS02001923           JUNCTION      0.04    15.50     0  03:02     0.00106       0.222       0.099
  YS02001926           JUNCTION      0.05    15.52     0  03:01     0.00147       0.223       0.721
  YS02001929           JUNCTION     15.48    15.48     0  03:01       0.221       0.221       0.094
  YS02001658           JUNCTION      0.00    45.77     0  02:57           0       0.448       0.045
  YS02001661           JUNCTION      0.00    45.77     0  02:57           0       0.449       0.162
  YS02001664           JUNCTION     45.77    45.77     0  02:57       0.449       0.449       0.032
  YS02001622           JUNCTION      0.00    34.16     0  02:50           0       0.383       0.647
  YS02001633           JUNCTION     36.88    71.47     0  02:58       0.446       0.801       2.291
  YS02001649           JUNCTION      0.00   161.12     0  03:32           0        1.65       1.422
  YS02001757           JUNCTION      0.00   369.01     0  04:20           0        3.39       2.012
  YS02001895           JUNCTION      0.00    64.38     0  02:59           0       0.603       0.515
  YS02001625           JUNCTION      0.00    36.27     0  02:50           0        0.38       3.945
  YS02163301           JUNCTION      0.00    37.85     0  02:41           0       0.368       3.358
  YS02163601           JUNCTION      0.11    72.07     0  02:41      0.0031       0.782       2.508
  YS02164001           JUNCTION      0.00    70.89     0  03:07           0       0.772       1.510
  YS02001647           JUNCTION      0.00   105.25     0  03:08           0        1.16       1.047
  YSB1154              JUNCTION      6.83     6.83     0  02:21      0.0287      0.0302       5.030
  YSB6556              JUNCTION      0.00     6.77     0  02:24           0      0.0312       4.154
  YSB1174              JUNCTION      6.83     6.83     0  02:14      0.0211      0.0221       6.176
  YSB1171              JUNCTION      0.00    12.57     0  02:23           0      0.0588      12.030
  YS02006553           JUNCTION      0.00   117.01     0  03:03           0        1.26       1.098
  YS02006561           JUNCTION      0.00   171.20     0  03:02           0        1.78       0.029
  YS02006556           JUNCTION      0.00   117.17     0  03:04           0        1.27       0.786
  YS02006558           JUNCTION     55.07   171.22     0  03:02       0.567        1.81       0.237
  YS02001783           JUNCTION      0.00   171.20     0  03:02           0        1.78       0.068
  YS02001784           JUNCTION      1.06   172.25     0  03:02      0.0299        1.81       0.114
  YS02001786           JUNCTION      0.06   172.29     0  03:03     0.00159        1.81       0.111
  YS02001788           JUNCTION      0.07   172.35     0  03:03       0.002        1.81       0.061
  YS02001790           JUNCTION      0.15   172.50     0  03:03     0.00437        1.82       0.080
  YS02001791           JUNCTION      0.00   172.50     0  03:03           0        1.81       0.039
  YS02001793           JUNCTION      0.00   172.50     0  03:03           0        1.81       0.014
  WS02004139           JUNCTION      0.32   380.32     0  02:25     0.00905        7.16       0.457
  WSC                  OUTFALL       0.00   812.19     0  04:43           0        13.3       0.000
  3                    OUTFALL       0.00   505.90     0  03:35           0        1.03       0.000
  4                    OUTFALL       0.00   108.49     0  03:36           0       0.177       0.000
  5                    OUTFALL       0.00     0.00     0  00:00           0           0       0.000 ltr
  JK-storage           STORAGE       0.00   172.50     0  03:04           0        1.96     -26.612
  CC-storage           STORAGE       0.00   272.80     0  03:03           0         2.9     -18.560
  XR-storage           STORAGE     262.77   262.77     0  03:01        6.39        6.99      -2.797
  
  
  **********************
  Node Surcharge Summary
  **********************
  
  Surcharging occurs when water rises above the top of the highest conduit.
  ---------------------------------------------------------------------
                                               Max. Height   Min. Depth
                                   Hours       Above Crown    Below Rim
  Node                 Type      Surcharged         Meters       Meters
  ---------------------------------------------------------------------
  WS02006109           JUNCTION        0.92          0.054        1.766
  WS02006232           JUNCTION        0.96          0.053        1.427
  WS02006235           JUNCTION        0.41          0.041        1.249
  WS02006238           JUNCTION        0.79          0.059        1.371
  WS02006242           JUNCTION        0.49          0.050        0.770
  WS02006239           JUNCTION        0.09          0.015        1.275
  WS02006252           JUNCTION        1.25          0.185        0.915
  WS02006228           JUNCTION        0.86          0.061        2.139
  
  
  *********************
  Node Flooding Summary
  *********************
  
  No nodes were flooded.
  
  
  **********************
  Storage Volume Summary
  **********************
  
  --------------------------------------------------------------------------------------------------
                         Average     Avg  Evap Exfil       Maximum     Max    Time of Max    Maximum
                          Volume    Pcnt  Pcnt  Pcnt        Volume    Pcnt     Occurrence    Outflow
  Storage Unit           1000 m3    Full  Loss  Loss       1000 m3    Full    days hr:min        LPS
  --------------------------------------------------------------------------------------------------
  JK-storage               0.019       7     0     0         0.205      71       0  03:22     600.00
  CC-storage               0.030       0     0     0         0.202       1       0  03:22     400.00
  XR-storage               0.069       7     0     0         0.600      65       0  00:00     380.00
  
  
  ***********************
  Outfall Loading Summary
  ***********************
  
  -----------------------------------------------------------
                         Flow       Avg       Max       Total
                         Freq      Flow      Flow      Volume
  Outfall Node           Pcnt       LPS       LPS    10^6 ltr
  -----------------------------------------------------------
  WSC                   99.99    540.48    812.19      13.338
  3                     47.44    121.57    505.90       1.035
  4                     20.35     47.28    108.49       0.177
  5                      0.00      0.00      0.00       0.000
  -----------------------------------------------------------
  System                41.95    709.32   1226.77      14.550
  
  
  ********************
  Link Flow Summary
  ********************
  
  -----------------------------------------------------------------------------
                                 Maximum  Time of Max   Maximum    Max/    Max/
                                  |Flow|   Occurrence   |Veloc|    Full    Full
  Link                 Type          LPS  days hr:min     m/sec    Flow   Depth
  -----------------------------------------------------------------------------
  WS02003066WSF200     CONDUIT    430.92     0  03:02      2.68    0.07    0.20
  WS02006287WS02006284 CONDUIT    113.50     0  02:25      1.31    0.05    0.17
  WS02006284WS02006280 CONDUIT    113.60     0  02:26      1.56    0.05    0.15
  WS02006280WS02006229 CONDUIT    113.60     0  02:26      2.50    0.02    0.11
  WS02006229WS02006228 CONDUIT    449.91     0  02:54      0.90    1.49    1.00
  WS02006256WS02006235 CONDUIT    166.25     0  00:01      2.58    1.76    1.00
  WS02006253WS02006251 CONDUIT     49.57     0  06:05      0.38    0.15    0.90
  WS02006252WS02006251 CONDUIT    400.04     0  03:30      3.18    1.47    1.00
  WS02006251WS02006249 CONDUIT    406.15     0  03:37      1.17    1.17    0.88
  WS02006249WS02006248 CONDUIT    354.30     0  02:50      1.15    1.94    0.84
  WS02006248WS02006247 CONDUIT    348.32     0  02:50      1.11    0.76    0.88
  WS02006247WS02006245 CONDUIT    341.55     0  02:50      1.06    2.71    0.92
  WS02006245WS02006243 CONDUIT    334.08     0  02:51      1.07    0.99    0.93
  WS02006243WS02006242 CONDUIT    324.50     0  02:51      0.95    0.69    0.98
  WS02006242WS02006240 CONDUIT    315.00     0  02:51      0.88    1.25    1.00
  WS02006240WS02006239 CONDUIT    308.48     0  04:22      0.94    0.97    1.00
  WS02006239WS02006238 CONDUIT    306.65     0  04:22      0.85    0.98    1.00
  WS02006238WS02006235 CONDUIT    306.57     0  04:22      1.25    0.68    1.00
  WS02006235WS02006234 CONDUIT    390.69     0  03:32      1.02    4.12    0.99
  WS02006234WS02006232 CONDUIT    389.95     0  03:32      1.13    0.79    1.00
  WS02006232WS02006231 CONDUIT    389.88     0  03:32      1.05    0.82    0.92
  WS02006231WS02006230 CONDUIT    389.81     0  03:35      1.33    5.91    0.79
  WS02006230WS02006229 CONDUIT    400.19     0  03:35      1.04    8.91    1.00
  WS02006228WS02006109 CONDUIT    449.84     0  02:54      0.89    1.97    1.00
  WS02006116WS02004401 CONDUIT    441.23     0  02:57      0.73    0.61    0.76
  WS02006115WS02006116 CONDUIT    444.29     0  02:55      0.81    0.57    0.68
  WS02006113WS02006111 CONDUIT    464.02     0  02:54      2.31    0.56    0.42
  WS02006112WS02006115 CONDUIT    450.54     0  02:55      0.68    0.27    0.80
  WS02006111WS02006112 CONDUIT    454.09     0  02:55      1.33    0.22    0.66
  WS02006110WS02006113 CONDUIT    450.97     0  02:54      1.10    0.41    0.76
  WS02006109WS02006110 CONDUIT    451.19     0  02:54      0.91    0.87    0.96
  WS02004411WS02004412 CONDUIT    432.17     0  03:01      0.84    0.61    0.63
  WS02004401WS02004402 CONDUIT    439.65     0  02:57      0.77    0.53    0.79
  WS02004413WS02003067 CONDUIT    430.86     0  03:02      0.99    0.18    0.54
  WS02004412WS02004413 CONDUIT    431.32     0  03:01      0.72    0.29    0.72
  WS02004410WS02004411 CONDUIT    433.61     0  03:00      0.86    0.59    0.61
  WS02004409WS02004410 CONDUIT    435.41     0  03:00      0.90    0.56    0.60
  WS02004407WS02004409 CONDUIT    437.81     0  02:59      1.38    0.16    0.43
  WS02004406WS02004407 CONDUIT    437.87     0  02:59      0.92    0.20    0.58
  WS02004405WS02004406 CONDUIT    437.92     0  02:58      0.66    0.86    0.90
  WS02004404WS02004405 CONDUIT    438.01     0  02:58      0.84    4.29    0.89
  WS02004403WS02004404 CONDUIT    438.25     0  02:58      0.74    0.32    0.86
  WS02004402WS02004403 CONDUIT    438.89     0  02:58      0.75    0.63    0.81
  WS02004139WS02001211 CONDUIT    380.13     0  04:40      0.81    0.48    0.59
  WS02004138WS02004139 CONDUIT    380.00     0  02:25      3.33    0.08    0.43
  WS02003067WS02003066 CONDUIT    430.94     0  03:02      1.07    0.14    0.39
  WS02001213WS02003059 CONDUIT    387.15     0  04:40      0.80    0.64    0.75
  WS02001212WS02001213 CONDUIT    387.20     0  04:40      1.32    0.60    0.45
  WS02001211WS02001212 CONDUIT    387.29     0  04:40      0.78    0.30    0.63
  WS02003072WS02003073 CONDUIT    810.39     0  04:42      1.64    1.75    0.45
  WS02003069WS02003072 CONDUIT    810.41     0  04:41      1.55    0.39    0.47
  WS02003060WS02003069 CONDUIT    810.10     0  04:41      1.80    0.32    0.42
  WS02003059WS02003060 CONDUIT    387.13     0  04:41      0.93    0.25    0.63
  HS02004901HS02004770 CONDUIT      5.41     0  02:22      0.03    0.02    0.25
  HS02004876HS02004881 CONDUIT     17.96     0  02:25      0.36    0.19    0.07
  HS02004870HS02004876 CONDUIT     14.18     0  02:25      0.26    0.01    0.08
  HS02004842HS02004848 CONDUIT      3.42     0  02:37      0.02    0.00    0.26
  HS02004837HS02004842 CONDUIT      4.47     0  00:03      0.41    0.00    0.27
  HS02004830HS02004837 CONDUIT     16.25     0  02:24      0.38    0.02    0.06
  HS02004824HS02004830 CONDUIT     16.40     0  02:25      0.42    0.02    0.06
  HS02004817HS02004824 CONDUIT     24.13     0  02:28      0.17    0.01    0.37
  HS02004770HS02004777 CONDUIT     27.61     0  02:21      0.15    0.05    0.27
  HS02004799HS02004480 CONDUIT     69.27     0  02:23      0.43    0.09    0.23
  HS02004792HS02004799 CONDUIT     63.35     0  02:23      0.50    0.04    0.18
  HS02004788HS02004792 CONDUIT     37.04     0  02:24      0.66    0.02    0.08
  HS02004785HS02004788 CONDUIT     27.28     0  02:24      0.38    0.21    0.10
  HS02004777HS02004785 CONDUIT     27.23     0  02:23      0.18    0.03    0.21
  HS02004480HS02004478 CONDUIT     81.67     0  02:24      0.74    0.34    0.16
  HS02004479HS02004480 CONDUIT     12.64     0  02:27      0.16    0.01    0.23
  HS02004862HS02004870 CONDUIT     10.19     0  02:26      0.36    0.01    0.04
  HS02004848HS02004852 CONDUIT      3.71     0  02:25      0.23    0.00    0.02
  HS02004856HS02004862 CONDUIT      6.65     0  02:25      0.26    0.01    0.04
  HS02004852HS02004856 CONDUIT      3.68     0  02:27      0.07    0.00    0.08
  HS02004802HS02004478 CONDUIT     32.25     0  02:29      0.23    0.03    0.21
  HS02004478WS02006287 CONDUIT    113.51     0  02:25      1.00    0.03    0.13
  HS02004817HS02004807 CONDUIT     24.94     0  02:30      0.08    0.01    0.46
  HS02004807HS02004802 CONDUIT     32.12     0  02:28      0.19    0.06    0.25
  YS02001759YS02001757 CONDUIT    104.47     0  03:02      0.14    0.07    0.89
  YS02001762YS02001759 CONDUIT     76.93     0  04:28      0.17    0.09    0.81
  YS02001765YS02001762 CONDUIT     53.61     0  03:02      0.22    0.05    0.77
  YS02001770YS02001767 CONDUIT     57.16     0  02:36      0.29    0.23    0.71
  YS02001774YS02001770 CONDUIT     31.16     0  02:32      0.12    0.02    0.72
  YS02001779YS02001774 CONDUIT     16.24     0  02:33      0.06    0.01    0.64
  YS02001649YS02001757 CONDUIT    158.15     0  02:58      0.22    0.10    0.87
  YS02001767YS02001765 CONDUIT     75.57     0  04:29      0.25    0.10    0.73
  YS02006561YS02001783 CONDUIT    171.20     0  03:02      1.52    0.09    0.28
  YS02001783YS02001784 CONDUIT    171.19     0  03:02      1.01    0.24    0.37
  YS02001784YS02001785 CONDUIT    172.23     0  03:03      1.05    0.40    0.36
  YS02001788YS02001790 CONDUIT    172.35     0  03:03      1.60    0.13    0.27
  YS02001790YS02001791 CONDUIT    172.50     0  03:03      1.82    0.19    0.25
  YS02001791YS02001793 CONDUIT    172.50     0  03:03      3.65    0.07    0.16
  YS02001910YS02001907 CONDUIT     52.77     0  03:04      0.49    0.03    0.62
  YS02001786YS02001788 CONDUIT    172.28     0  03:03      1.45    0.33    0.29
  YS02001915YS02001910 CONDUIT     52.77     0  03:01      0.44    0.03    0.41
  YS02001918YS02001915 CONDUIT     18.34     0  03:05      0.44    0.01    0.19
  YS02001923YS02001920 CONDUIT     15.50     0  03:02      0.32    0.01    0.11
  YS02001926YS02001923 CONDUIT     15.46     0  03:02      0.38    0.02    0.10
  YS02001929YS02001926 CONDUIT     15.47     0  03:01      0.39    0.01    0.10
  YS02001920YS02001918 CONDUIT     18.35     0  03:04      0.35    0.02    0.12
  YS02001629YS02163301 CONDUIT     37.85     0  02:41      0.09    0.05    0.67
  YS02001619YS02001622 CONDUIT     34.16     0  02:50      0.54    0.05    0.28
  YS02001622YS02001625 CONDUIT     36.27     0  02:50      0.18    0.02    0.45
  YS02001625YS02001629 CONDUIT     36.25     0  02:41      0.17    0.02    0.43
  YS02163301YS02001633 CONDUIT     37.16     0  02:40      0.08    0.03    0.71
  YS02163601YS02164001 CONDUIT     70.89     0  03:07      0.12    0.06    0.77
  YS02164001YS02001641 CONDUIT     71.02     0  03:31      0.12    0.10    0.75
  YS02001641YS02001644 CONDUIT     69.54     0  03:16      0.12    0.22    0.76
  YS02001647YS02001649 CONDUIT    107.25     0  03:06      0.19    0.06    0.70
  YS02006553YS02006556 CONDUIT    117.17     0  03:04      0.20    0.10    0.71
  YS02006556YS02006558 CONDUIT    117.28     0  03:04      0.19    0.09    0.73
  YSB6556YSB1171       CONDUIT      6.82     0  02:27      0.04    0.01    0.50
  YS02001907YS02006553 CONDUIT    117.01     0  03:03      0.16    0.14    0.80
  YS02006558YS02006561 CONDUIT    171.20     0  03:02      1.96    0.38    0.35
  YS02001633YS02163601 CONDUIT     71.96     0  02:41      0.13    0.08    0.76
  YS02001644YS02001647 CONDUIT    105.25     0  03:08      0.19    0.06    0.68
  YS02001745YS02001748 CONDUIT     38.22     0  03:01      1.19    0.01    0.08
  YS02001748YS02001751 CONDUIT     41.91     0  02:59      0.93    0.02    0.22
  YS02001751YS02001754 CONDUIT     88.35     0  04:33      0.85    0.04    0.43
  YS02001754YS02001757 CONDUIT    163.08     0  04:47      0.33    0.07    0.76
  YS02001882YS02001884 CONDUIT      2.12     0  02:13      0.06    0.00    0.35
  YS02001884YS02001887 CONDUIT      6.35     0  02:08      0.05    0.01    0.44
  YS02001890YS02001895 CONDUIT     64.38     0  02:59      0.21    0.03    0.41
  YS02001895YS02001898 CONDUIT     64.33     0  03:00      0.42    0.11    0.27
  YS02001898YS02001901 CONDUIT     64.32     0  03:01      0.26    0.04    0.35
  YS02001901YS02001904 CONDUIT     64.21     0  03:02      0.21    0.10    0.41
  YS02001904YS02001907 CONDUIT     64.41     0  03:02      0.14    0.02    0.57
  YS02001887YS02001890 CONDUIT     64.55     0  02:57      0.17    0.11    0.49
  YS02001652YS02001649 CONDUIT     61.06     0  04:28      0.26    0.03    0.70
  YS02001655YS02001652 CONDUIT     53.10     0  02:58      0.91    0.03    0.46
  YS02001658YS02001655 CONDUIT     45.77     0  02:57      1.07    0.02    0.22
  YS02001661YS02001658 CONDUIT     45.77     0  02:57      1.21    0.02    0.09
  YS02001664YS02001661 CONDUIT     45.77     0  02:57      0.82    0.01    0.12
  YSB1154YSB6556       CONDUIT      6.77     0  02:24      0.19    0.01    0.39
  YSB1174YSB1171       CONDUIT      6.30     0  02:18      0.03    0.01    0.51
  YSB1171HS02004479    CONDUIT     12.56     0  02:26      0.54    0.01    0.38
  HS02004881HS02006253 CONDUIT     20.18     0  02:24      1.29    0.00    0.23
  YS02001793JiankangQianchi CONDUIT    172.50     0  03:04     10.92    0.01    0.54
  YS02001757CaochengTiaoxuchi CONDUIT    272.80     0  03:03      0.74    0.12    0.50
  WSF200WS02003060     CONDUIT    431.49     0  03:02      1.60    0.10    0.30
  1                    CONDUIT    812.19     0  04:43      3.14    0.28    0.36
  2                    CONDUIT    108.49     0  03:36      4.96    0.26    0.35
  3                    CONDUIT    505.90     0  03:35      9.80    0.81    0.68
  4                    CONDUIT      0.00     0  00:00      0.00    0.00    0.00
  CC-Pump-1            PUMP       200.00     0  03:20              1.00
  CC-Pump-2            PUMP       200.00     0  03:30              1.00
  JK-Pump-1            PUMP       300.00     0  00:00              1.00
  JK-Pump-2            PUMP       300.00     0  03:30              1.00
  XR-Pump-1            PUMP        95.00     0  00:00              1.00
  XR-Pump-2            PUMP        95.00     0  00:00              1.00
  XR-Pump-3            PUMP        95.00     0  00:40              1.00
  XR-Pump-4            PUMP        95.00     0  00:00              1.00
  
  
  ***************************
  Flow Classification Summary
  ***************************
  
  -------------------------------------------------------------------------------------
                      Adjusted    ---------- Fraction of Time in Flow Class ---------- 
                       /Actual         Up    Down  Sub   Sup   Up    Down  Norm  Inlet 
  Conduit               Length    Dry  Dry   Dry   Crit  Crit  Crit  Crit  Ltd   Ctrl  
  -------------------------------------------------------------------------------------
  WS02003066WSF200        1.00   0.05  0.02  0.00  0.00  0.93  0.00  0.00  0.77  0.00
  WS02006287WS02006284    1.00   0.04  0.02  0.00  0.74  0.20  0.00  0.00  0.81  0.00
  WS02006284WS02006280    1.00   0.05  0.00  0.00  0.00  0.00  0.00  0.95  0.00  0.00
  WS02006280WS02006229    1.00   0.05  0.00  0.00  0.00  0.00  0.00  0.95  0.00  0.00
  WS02006229WS02006228    1.00   0.00  0.00  0.00  0.98  0.00  0.00  0.02  0.00  0.00
  WS02006256WS02006235    1.00   0.00  0.00  0.00  1.00  0.00  0.00  0.00  0.00  0.00
  WS02006253WS02006251    1.00   0.03  0.01  0.00  0.95  0.00  0.00  0.00  0.00  0.00
  WS02006252WS02006251    1.00   0.10  0.00  0.00  0.00  0.00  0.90  0.00  0.00  0.00
  WS02006251WS02006249    1.00   0.00  0.00  0.00  1.00  0.00  0.00  0.00  0.31  0.00
  WS02006249WS02006248    1.00   0.00  0.02  0.00  0.89  0.00  0.09  0.00  0.00  0.00
  WS02006248WS02006247    1.00   0.03  0.00  0.00  0.97  0.00  0.00  0.00  0.20  0.00
  WS02006247WS02006245    1.00   0.02  0.00  0.00  0.98  0.00  0.00  0.00  0.00  0.00
  WS02006245WS02006243    1.00   0.01  0.00  0.00  0.93  0.00  0.00  0.05  0.03  0.00
  WS02006243WS02006242    1.00   0.01  0.00  0.00  0.99  0.00  0.00  0.00  0.29  0.00
  WS02006242WS02006240    1.00   0.00  0.00  0.00  1.00  0.00  0.00  0.00  0.00  0.00
  WS02006240WS02006239    1.00   0.00  0.00  0.00  0.95  0.00  0.00  0.05  0.01  0.00
  WS02006239WS02006238    1.00   0.00  0.00  0.00  1.00  0.00  0.00  0.00  0.00  0.00
  WS02006238WS02006235    1.00   0.00  0.00  0.00  1.00  0.00  0.00  0.00  0.00  0.00
  WS02006235WS02006234    1.00   0.00  0.00  0.00  0.94  0.00  0.06  0.00  0.00  0.00
  WS02006234WS02006232    1.00   0.00  0.00  0.00  1.00  0.00  0.00  0.00  0.01  0.00
  WS02006232WS02006231    1.00   0.00  0.00  0.00  0.99  0.00  0.01  0.00  0.00  0.00
  WS02006231WS02006230    1.00   0.00  0.00  0.00  0.33  0.00  0.66  0.00  0.00  0.00
  WS02006230WS02006229    1.00   0.00  0.00  0.00  0.98  0.00  0.00  0.02  0.01  0.00
  WS02006228WS02006109    1.00   0.00  0.00  0.00  1.00  0.00  0.00  0.00  0.00  0.00
  WS02006116WS02004401    1.00   0.03  0.00  0.00  0.97  0.00  0.00  0.00  0.00  0.00
  WS02006115WS02006116    1.00   0.03  0.00  0.00  0.96  0.00  0.00  0.01  0.00  0.00
  WS02006113WS02006111    1.00   0.02  0.00  0.00  0.00  0.98  0.00  0.00  0.14  0.00
  WS02006112WS02006115    1.00   0.03  0.00  0.00  0.97  0.00  0.00  0.00  0.00  0.00
  WS02006111WS02006112    1.00   0.03  0.00  0.00  0.97  0.00  0.00  0.00  0.98  0.00
  WS02006110WS02006113    1.00   0.01  0.01  0.00  0.98  0.00  0.00  0.00  0.00  0.00
  WS02006109WS02006110    1.00   0.00  0.01  0.00  0.98  0.00  0.01  0.00  0.00  0.00
  WS02004411WS02004412    1.00   0.05  0.00  0.00  0.95  0.00  0.00  0.00  0.00  0.00
  WS02004401WS02004402    1.00   0.03  0.00  0.00  0.97  0.00  0.00  0.00  0.00  0.00
  WS02004413WS02003067    1.00   0.05  0.02  0.00  0.00  0.00  0.94  0.00  0.00  0.00
  WS02004412WS02004413    1.00   0.05  0.00  0.00  0.95  0.00  0.00  0.00  0.03  0.00
  WS02004410WS02004411    1.00   0.04  0.00  0.00  0.96  0.00  0.00  0.00  0.04  0.00
  WS02004409WS02004410    1.00   0.04  0.00  0.00  0.96  0.00  0.00  0.00  0.04  0.00
  WS02004407WS02004409    1.00   0.04  0.00  0.00  0.95  0.00  0.00  0.00  0.89  0.00
  WS02004406WS02004407    1.00   0.00  0.04  0.00  0.96  0.00  0.00  0.00  0.00  0.00
  WS02004405WS02004406    1.00   0.00  0.00  0.00  1.00  0.00  0.00  0.00  0.00  0.00
  WS02004404WS02004405    1.00   0.00  0.00  0.00  1.00  0.00  0.00  0.00  0.00  0.00
  WS02004403WS02004404    1.00   0.00  0.03  0.00  0.97  0.00  0.00  0.00  0.01  0.00
  WS02004402WS02004403    1.00   0.03  0.00  0.00  0.97  0.00  0.00  0.00  0.00  0.00
  WS02004139WS02001211    1.00   0.00  0.00  0.00  1.00  0.00  0.00  0.00  0.00  0.00
  WS02004138WS02004139    1.00   0.00  0.00  0.00  0.99  0.01  0.00  0.00  1.00  0.00
  WS02003067WS02003066    1.00   0.06  0.00  0.00  0.93  0.00  0.00  0.00  0.00  0.00
  WS02001213WS02003059    1.00   0.00  0.00  0.00  0.99  0.00  0.00  0.00  0.00  0.00
  WS02001212WS02001213    1.00   0.00  0.00  0.00  0.80  0.00  0.19  0.00  0.00  0.00
  WS02001211WS02001212    1.00   0.00  0.00  0.00  1.00  0.00  0.00  0.00  0.00  0.00
  WS02003072WS02003073    1.00   0.00  0.00  0.00  0.00  0.00  0.00  1.00  0.00  0.00
  WS02003069WS02003072    1.00   0.00  0.00  0.00  0.99  0.01  0.00  0.00  0.25  0.00
  WS02003060WS02003069    1.00   0.00  0.00  0.00  0.98  0.02  0.00  0.00  0.15  0.00
  WS02003059WS02003060    1.00   0.00  0.00  0.00  0.99  0.01  0.00  0.00  0.01  0.00
  HS02004901HS02004770    1.00   0.05  0.00  0.00  0.95  0.00  0.00  0.00  0.03  0.00
  HS02004876HS02004881    1.00   0.03  0.00  0.00  0.97  0.00  0.00  0.00  0.00  0.00
  HS02004870HS02004876    1.00   0.01  0.00  0.00  0.99  0.00  0.00  0.00  0.95  0.00
  HS02004842HS02004848    1.00   0.00  0.05  0.00  0.95  0.00  0.00  0.00  0.71  0.00
  HS02004837HS02004842    1.00   0.00  0.00  0.00  0.99  0.01  0.00  0.00  0.11  0.00
  HS02004830HS02004837    1.00   0.00  0.00  0.00  1.00  0.00  0.00  0.00  0.99  0.00
  HS02004824HS02004830    1.00   0.00  0.00  0.00  1.00  0.00  0.00  0.00  0.00  0.00
  HS02004817HS02004824    1.00   0.00  0.00  0.00  1.00  0.00  0.00  0.00  1.00  0.00
  HS02004770HS02004777    1.00   0.00  0.05  0.00  0.95  0.00  0.00  0.00  0.08  0.00
  HS02004799HS02004480    1.00   0.00  0.03  0.00  0.93  0.00  0.03  0.00  0.00  0.00
  HS02004792HS02004799    1.00   0.00  0.00  0.00  0.98  0.02  0.00  0.00  0.98  0.00
  HS02004788HS02004792    1.00   0.00  0.00  0.00  0.99  0.01  0.00  0.00  0.98  0.00
  HS02004785HS02004788    1.00   0.00  0.00  0.00  1.00  0.00  0.00  0.00  0.00  0.00
  HS02004777HS02004785    1.00   0.00  0.00  0.00  1.00  0.00  0.00  0.00  0.22  0.00
  HS02004480HS02004478    1.00   0.06  0.00  0.00  0.77  0.00  0.00  0.18  0.00  0.00
  HS02004479HS02004480    1.00   0.03  0.00  0.00  0.97  0.00  0.00  0.00  0.16  0.00
  HS02004862HS02004870    1.00   0.00  0.00  0.00  1.00  0.00  0.00  0.00  0.05  0.00
  HS02004848HS02004852    1.00   0.05  0.00  0.00  0.95  0.00  0.00  0.00  0.69  0.00
  HS02004856HS02004862    1.00   0.00  0.08  0.00  0.92  0.00  0.00  0.00  0.73  0.00
  HS02004852HS02004856    1.00   0.05  0.01  0.00  0.94  0.00  0.00  0.00  0.82  0.00
  HS02004802HS02004478    1.00   0.05  0.01  0.00  0.94  0.00  0.00  0.00  0.00  0.00
  HS02004478WS02006287    1.00   0.06  0.00  0.00  0.94  0.00  0.00  0.00  0.81  0.00
  HS02004817HS02004807    1.00   0.00  0.05  0.00  0.95  0.00  0.00  0.00  0.00  0.00
  HS02004807HS02004802    1.00   0.05  0.00  0.00  0.95  0.00  0.00  0.00  0.01  0.00
  YS02001759YS02001757    1.00   0.00  0.00  0.00  1.00  0.00  0.00  0.00  0.17  0.00
  YS02001762YS02001759    1.00   0.00  0.00  0.00  1.00  0.00  0.00  0.00  0.05  0.00
  YS02001765YS02001762    1.00   0.00  0.00  0.00  1.00  0.00  0.00  0.00  0.23  0.00
  YS02001770YS02001767    1.00   0.00  0.00  0.00  1.00  0.00  0.00  0.00  0.00  0.00
  YS02001774YS02001770    1.00   0.00  0.06  0.00  0.94  0.00  0.00  0.00  0.07  0.00
  YS02001779YS02001774    1.00   0.00  0.00  0.00  1.00  0.00  0.00  0.00  0.28  0.00
  YS02001649YS02001757    1.00   0.00  0.00  0.00  1.00  0.00  0.00  0.00  0.19  0.00
  YS02001767YS02001765    1.00   0.00  0.00  0.00  1.00  0.00  0.00  0.00  0.01  0.00
  YS02006561YS02001783    1.00   0.08  0.00  0.00  0.00  0.92  0.00  0.00  0.72  0.00
  YS02001783YS02001784    1.00   0.00  0.08  0.00  0.92  0.00  0.00  0.00  0.10  0.00
  YS02001784YS02001785    1.00   0.00  0.00  0.00  1.00  0.00  0.00  0.00  0.26  0.00
  YS02001788YS02001790    1.00   0.00  0.00  0.00  0.08  0.92  0.00  0.00  0.99  0.00
  YS02001790YS02001791    1.00   0.00  0.00  0.00  0.02  0.98  0.00  0.00  0.36  0.00
  YS02001791YS02001793    1.00   0.00  0.00  0.00  0.00  1.00  0.00  0.00  0.00  0.00
  YS02001910YS02001907    1.00   0.00  0.00  0.00  0.97  0.00  0.00  0.03  0.13  0.00
  YS02001786YS02001788    1.00   0.00  0.00  0.00  0.09  0.90  0.00  0.00  0.00  0.00
  YS02001915YS02001910    1.00   0.00  0.00  0.00  0.99  0.01  0.00  0.00  0.25  0.00
  YS02001918YS02001915    1.00   0.00  0.01  0.00  0.98  0.02  0.00  0.00  0.80  0.00
  YS02001923YS02001920    1.00   0.00  0.00  0.00  1.00  0.00  0.00  0.00  1.00  0.00
  YS02001926YS02001923    1.00   0.00  0.04  0.00  0.00  0.00  0.96  0.00  0.00  0.00
  YS02001929YS02001926    1.00   0.00  0.05  0.00  0.95  0.00  0.00  0.00  0.86  0.00
  YS02001920YS02001918    1.00   0.00  0.01  0.00  0.99  0.00  0.00  0.00  0.00  0.00
  YS02001629YS02163301    1.00   0.07  0.00  0.00  0.93  0.00  0.00  0.00  0.00  0.00
  YS02001619YS02001622    1.00   0.05  0.00  0.00  0.95  0.00  0.00  0.00  0.00  0.00
  YS02001622YS02001625    1.00   0.05  0.00  0.00  0.95  0.00  0.00  0.00  0.14  0.00
  YS02001625YS02001629    1.00   0.05  0.03  0.00  0.90  0.00  0.02  0.00  0.00  0.00
  YS02163301YS02001633    1.00   0.00  0.07  0.00  0.93  0.00  0.00  0.00  0.00  0.00
  YS02163601YS02164001    1.00   0.00  0.04  0.00  0.96  0.00  0.00  0.00  0.00  0.00
  YS02164001YS02001641    1.00   0.01  0.03  0.00  0.96  0.00  0.00  0.00  0.07  0.00
  YS02001641YS02001644    1.00   0.00  0.01  0.00  0.99  0.00  0.00  0.00  0.00  0.00
  YS02001647YS02001649    1.00   0.00  0.08  0.00  0.92  0.00  0.00  0.00  0.01  0.00
  YS02006553YS02006556    1.00   0.02  0.00  0.00  0.98  0.00  0.00  0.00  0.03  0.00
  YS02006556YS02006558    1.00   0.00  0.00  0.00  1.00  0.00  0.00  0.00  0.00  0.00
  YSB6556YSB1171          1.00   0.03  0.02  0.00  0.95  0.00  0.00  0.00  0.00  0.00
  YS02001907YS02006553    1.00   0.00  0.02  0.00  0.97  0.00  0.00  0.00  0.00  0.00
  YS02006558YS02006561    1.00   0.08  0.00  0.00  0.00  0.92  0.00  0.00  0.71  0.00
  YS02001633YS02163601    1.00   0.00  0.01  0.00  0.99  0.00  0.00  0.00  0.20  0.00
  YS02001644YS02001647    1.00   0.00  0.08  0.00  0.92  0.00  0.00  0.00  0.00  0.00
  YS02001745YS02001748    1.00   0.00  0.00  0.00  0.00  0.00  0.00  1.00  0.00  0.00
  YS02001748YS02001751    1.00   0.00  0.00  0.00  0.97  0.03  0.00  0.00  0.82  0.00
  YS02001751YS02001754    1.00   0.00  0.00  0.00  0.91  0.00  0.00  0.09  0.03  0.00
  YS02001754YS02001757    1.00   0.00  0.00  0.00  0.99  0.01  0.00  0.00  0.28  0.00
  YS02001882YS02001884    1.00   0.07  0.00  0.00  0.93  0.00  0.00  0.00  0.00  0.00
  YS02001884YS02001887    1.00   0.04  0.01  0.00  0.95  0.00  0.00  0.00  0.00  0.00
  YS02001890YS02001895    1.00   0.00  0.07  0.00  0.93  0.00  0.00  0.00  0.00  0.00
  YS02001895YS02001898    1.00   0.07  0.00  0.00  0.92  0.00  0.01  0.00  0.00  0.00
  YS02001898YS02001901    1.00   0.07  0.01  0.00  0.92  0.00  0.00  0.00  0.02  0.00
  YS02001901YS02001904    1.00   0.07  0.00  0.00  0.93  0.00  0.00  0.00  0.00  0.00
  YS02001904YS02001907    1.00   0.00  0.07  0.00  0.93  0.00  0.00  0.00  0.00  0.00
  YS02001887YS02001890    1.00   0.00  0.00  0.00  0.97  0.00  0.03  0.00  0.00  0.00
  YS02001652YS02001649    1.00   0.00  0.00  0.00  1.00  0.00  0.00  0.00  0.27  0.00
  YS02001655YS02001652    1.00   0.00  0.00  0.00  0.91  0.00  0.00  0.09  0.03  0.00
  YS02001658YS02001655    1.00   0.00  0.06  0.00  0.91  0.03  0.00  0.00  0.79  0.00
  YS02001661YS02001658    1.00   0.06  0.00  0.00  0.00  0.94  0.00  0.00  0.72  0.00
  YS02001664YS02001661    1.00   0.05  0.00  0.00  0.95  0.00  0.00  0.00  0.86  0.00
  YSB1154YSB6556          1.00   0.05  0.00  0.00  0.95  0.00  0.00  0.00  0.02  0.00
  YSB1174YSB1171          1.00   0.03  0.01  0.00  0.96  0.00  0.00  0.00  0.00  0.00
  YSB1171HS02004479       1.00   0.03  0.00  0.00  0.96  0.00  0.00  0.00  0.13  0.00
  HS02004881HS02006253    1.00   0.03  0.00  0.00  0.67  0.02  0.00  0.28  0.47  0.00
  YS02001793JiankangQianchi    1.00   0.00  0.00  0.00  0.21  0.79  0.00  0.00  0.18  0.00
  YS02001757CaochengTiaoxuchi    1.00   0.00  0.10  0.00  0.90  0.00  0.00  0.00  0.00  0.00
  WSF200WS02003060        1.00   0.00  0.05  0.00  0.86  0.09  0.00  0.00  0.52  0.00
  1                       1.00   0.00  0.00  0.00  0.00  1.00  0.00  0.00  0.44  0.00
  2                       1.00   0.80  0.00  0.00  0.00  0.20  0.00  0.00  0.05  0.00
  3                       1.00   0.52  0.00  0.00  0.00  0.48  0.00  0.00  0.42  0.00
  4                       1.00   1.00  0.00  0.00  0.00  0.00  0.00  0.00  0.00  0.00
  
  
  *************************
  Conduit Surcharge Summary
  *************************
  
  ----------------------------------------------------------------------------
                                                           Hours        Hours 
                         --------- Hours Full --------   Above Full   Capacity
  Conduit                Both Ends  Upstream  Dnstream   Normal Flow   Limited
  ----------------------------------------------------------------------------
  WS02006229WS02006228        0.86      0.96      0.86      2.06         0.86
  WS02006256WS02006235        5.52      5.53      7.71      1.72         0.01
  WS02006252WS02006251        0.59      0.59      1.25      1.08         0.01
  WS02006251WS02006249        0.01      0.01      0.01      0.59         0.01
  WS02006249WS02006248        0.01      0.01      0.01      2.36         0.01
  WS02006247WS02006245        0.01      0.01      0.01      3.89         0.01
  WS02006243WS02006242        0.01      0.01      0.49      0.01         0.01
  WS02006242WS02006240        0.01      0.01      0.80      1.22         0.01
  WS02006240WS02006239        0.07      0.07      0.09      0.01         0.01
  WS02006239WS02006238        0.73      0.73      0.79      0.01         0.01
  WS02006238WS02006235        0.70      0.70      0.92      0.01         0.01
  WS02006235WS02006234        0.01      0.01      0.41      5.50         0.01
  WS02006234WS02006232        0.06      0.06      0.96      0.01         0.01
  WS02006232WS02006231        0.01      0.01      0.96      0.01         0.01
  WS02006231WS02006230        0.01      0.01      0.01      5.57         0.01
  WS02006230WS02006229        1.35      1.85      1.35      5.70         1.35
  WS02006228WS02006109        0.92      1.13      0.92      4.11         0.92
  WS02006111WS02006112        0.01      0.01      2.23      0.01         0.01
  WS02006110WS02006113        0.01      0.01      1.04      0.01         0.01
  WS02006109WS02006110        0.01      0.01      1.13      0.01         0.01
  WS02004404WS02004405        0.01      0.01      0.01      5.44         0.01
  WS02003072WS02003073        0.01      0.01      0.01      4.65         0.01
  YS02001793JiankangQianchi        0.01      0.01      0.59      0.01         0.01
  
  
  ***************
  Pumping Summary
  ***************
  
  ---------------------------------------------------------------------------------------------------------
                                                  Min       Avg       Max     Total     Power    % Time Off
                        Percent   Number of      Flow      Flow      Flow    Volume     Usage    Pump Curve
  Pump                 Utilized   Start-Ups       LPS       LPS       LPS  10^6 ltr     Kw-hr    Low   High
  ---------------------------------------------------------------------------------------------------------
  CC-Pump-1               61.54           4      0.00    124.91    200.00     2.040      9.03    0.0  100.0
  CC-Pump-2               50.90           4      0.00    111.02    200.00     1.527      6.84    0.0  100.0
  JK-Pump-1               87.23           5      0.00     94.59    300.00     1.669     30.56    0.0    0.0
  JK-Pump-2               68.08           6      0.00     79.09    300.00     1.007     18.46    0.0    0.0
  XR-Pump-1               89.35           6      0.00     65.17     95.00     1.596     36.34    0.0    0.0
  XR-Pump-2               91.48           6      0.00     66.20     95.00     1.710     38.44    0.0    0.0
  XR-Pump-3               93.59           3      0.00     76.20     95.00     1.995     45.79    0.0    0.0
  XR-Pump-4               93.61           5      0.00     65.92     95.00     1.853     41.14    0.0    0.0
  

  Analysis begun on:  Fri Dec 24 14:11:04 2021
  Analysis ended on:  Fri Dec 24 14:11:07 2021
  Total elapsed time: 00:00:03