
  EPA STORM WATER MANAGEMENT MODEL - VERSION 5.1 (Build 5.3.0.dev0)
  --------------------------------------------------------------

  WARNING 04: minimum elevation drop used for Conduit WS02004404WS02004405
  WARNING 03: negative offset ignored for Link YS02001904YS02001907
  
  *********************************************************
  NOTE: The summary statistics displayed in this report are
  based on results found at every computational time step,  
  not just on results from each reporting time step.
  *********************************************************
  
  ****************
  Analysis Options
  ****************
  Flow Units ............... LPS
  Process Models:
    Rainfall/Runoff ........ YES
    RDII ................... NO
    Snowmelt ............... NO
    Groundwater ............ NO
    Flow Routing ........... YES
    Ponding Allowed ........ NO
    Water Quality .......... NO
  Infiltration Method ...... HORTON
  Flow Routing Method ...... DYNWAVE
  Surcharge Method ......... EXTRAN
  Starting Date ............ 08/28/2015 08:00:00
  Ending Date .............. 08/28/2015 15:50:00
  Antecedent Dry Days ...... 8.0
  Report Time Step ......... 00:01:00
  Wet Time Step ............ 00:01:00
  Dry Time Step ............ 00:01:00
  Routing Time Step ........ 5.00 sec
  Variable Time Step ....... YES
  Maximum Trials ........... 8
  Number of Threads ........ 4
  Head Tolerance ........... 0.001500 m
  
  
  **************************        Volume         Depth
  Runoff Quantity Continuity     hectare-m            mm
  **************************     ---------       -------
  Total Precipitation ......         1.673         3.664
  Evaporation Loss .........         0.000         0.000
  Infiltration Loss ........         0.410         0.897
  Surface Runoff ...........         0.497         1.088
  Final Storage ............         0.767         1.679
  Continuity Error (%) .....        -0.016
  
  
  **************************        Volume        Volume
  Flow Routing Continuity        hectare-m      10^6 ltr
  **************************     ---------     ---------
  Dry Weather Inflow .......         0.616         6.165
  Wet Weather Inflow .......         0.497         4.965
  Groundwater Inflow .......         0.000         0.000
  RDII Inflow ..............         0.000         0.000
  External Inflow ..........         0.102         1.024
  External Outflow .........         1.258        12.584
  Flooding Loss ............         0.000         0.000
  Evaporation Loss .........         0.000         0.000
  Exfiltration Loss ........         0.000         0.000
  Initial Stored Volume ....         0.076         0.761
  Final Stored Volume ......         0.170         1.702
  Continuity Error (%) .....       -10.625
  
  
  *************************
  Highest Continuity Errors
  *************************
  Node HS02004842 (40.81%)
  Node JK-storage (-36.75%)
  Node YS02001884 (34.67%)
  Node YS02001774 (18.80%)
  Node YSB1171 (12.57%)
  
  
  ***************************
  Time-Step Critical Elements
  ***************************
  Link WS02006252WS02006251 (84.08%)
  Link 3 (7.42%)
  Link WS02006280WS02006229 (3.51%)
  Link WS02006238WS02006235 (1.38%)
  
  
  ********************************
  Highest Flow Instability Indexes
  ********************************
  Link WS02006113WS02006111 (55)
  Link WS02006111WS02006112 (22)
  Link YS02001754YS02001757 (3)
  Link YS02001751YS02001754 (2)
  Link YS02001762YS02001759 (2)
  
  
  *************************
  Routing Time Step Summary
  *************************
  Minimum Time Step           :     0.50 sec
  Average Time Step           :     1.03 sec
  Maximum Time Step           :     5.00 sec
  Percent in Steady State     :    -0.00
  Average Iterations per Step :     2.01
  Percent Not Converging      :     0.01
  
  
  ***************************
  Subcatchment Runoff Summary
  ***************************
  
  ------------------------------------------------------------------------------------------------------------------------------
                            Total      Total      Total      Total     Imperv       Perv      Total       Total     Peak  Runoff
                           Precip      Runon       Evap      Infil     Runoff     Runoff     Runoff      Runoff   Runoff   Coeff
  Subcatchment                 mm         mm         mm         mm         mm         mm         mm    10^6 ltr      LPS
  ------------------------------------------------------------------------------------------------------------------------------
  sub0                       3.66       0.00       0.00       0.26       2.14       0.00       2.14        0.00     0.58   0.585
  sub1                       3.66       0.00       0.00       0.40       2.01       0.00       2.01        0.01     3.00   0.548
  sub2                       3.66       0.00       0.00       1.36       1.41       0.00       1.41        0.01     2.64   0.384
  sub3                       3.66       0.00       0.00       1.36       1.38       0.00       1.38        0.03     5.41   0.375
  sub4                       3.66       0.00       0.00       0.40       1.89       0.00       1.89        0.04     6.04   0.515
  sub5                       3.66       0.00       0.00       0.26       2.10       0.00       2.10        0.02     5.33   0.573
  sub7                       3.66       0.00       0.00       0.33       2.08       0.00       2.08        0.01     1.89   0.568
  sub8                       3.66       0.00       0.00       0.33       2.07       0.00       2.07        0.01     3.33   0.565
  sub9                       3.66       0.00       0.00       0.33       2.07       0.00       2.07        0.01     2.46   0.565
  sub10                      3.66       0.00       0.00       0.29       2.08       0.00       2.08        0.02     5.32   0.568
  sub11                      3.66       0.00       0.00       0.29       2.10       0.00       2.10        0.02     6.26   0.572
  sub12                      3.66       0.00       0.00       0.48       2.00       0.00       2.00        0.02     5.33   0.546
  sub14                      3.66       0.00       0.00       0.33       2.07       0.00       2.07        0.02     4.81   0.564
  sub15                      3.66       0.00       0.00       1.10       1.59       0.00       1.59        0.03     6.53   0.433
  sub16                      3.66       0.00       0.00       1.21       1.54       0.00       1.54        0.02     4.68   0.419
  sub17                      3.66       0.00       0.00       1.17       1.56       0.00       1.56        0.01     3.77   0.425
  sub22                      3.66       0.00       0.00       1.58       1.30       0.00       1.30        0.08    21.43   0.355
  sub23                      3.66       0.00       0.00       1.36       1.44       0.00       1.44        0.07    18.25   0.393
  sub60                      3.66       0.00       0.00       0.44       1.17       0.00       1.17        0.36    28.99   0.320
  sub61                      3.66       0.00       0.00       0.62       1.31       0.00       1.31        0.40    37.39   0.358
  sub62                      3.66       0.00       0.00       0.29       1.39       0.00       1.39        0.43    37.98   0.379
  sub63                      3.66       0.00       0.00       1.06       1.19       0.00       1.19        0.36    35.07   0.324
  sub64                      3.66       0.00       0.00       0.55       1.12       0.00       1.12        0.34    27.46   0.305
  sub65                      3.66       0.00       0.00       0.48       1.13       0.00       1.13        0.35    27.79   0.308
  sub66                      3.66       0.00       0.00       1.06       0.99       0.00       0.99        0.30    25.45   0.270
  sub67                      3.66       0.00       0.00       0.29       1.59       0.00       1.59        0.49    49.44   0.433
  sub68                      3.66       0.00       0.00       0.51       1.41       0.00       1.41        0.43    41.48   0.385
  sub69                      3.66       0.00       0.00       0.55       1.59       0.00       1.59        0.37    41.71   0.433
  sub70                      3.66       1.62       0.00       1.80       1.76       0.00       1.76        0.40    29.67   0.333
  sub71                      3.66       0.00       0.00       0.29       1.31       0.00       1.31        0.31    26.25   0.356
  sub72                      3.66       0.00       0.00       0.26       0.84       0.00       0.84        0.17    11.65   0.230
  sub73                      3.66       1.71       0.00       1.83       1.67       0.00       1.67        0.39    25.36   0.311
  sub74                      3.66       0.00       0.00       2.75       0.49       0.00       0.49        0.19    23.37   0.132
  
  
  ******************
  Node Depth Summary
  ******************
  
  ---------------------------------------------------------------------------------
                                 Average  Maximum  Maximum  Time of Max    Reported
                                   Depth    Depth      HGL   Occurrence   Max Depth
  Node                 Type       Meters   Meters   Meters  days hr:min      Meters
  ---------------------------------------------------------------------------------
  WS02001211           JUNCTION     0.65     0.76     5.60     0  07:48        0.76
  WS02001212           JUNCTION     0.37     0.46     5.53     0  07:48        0.46
  WS02001213           JUNCTION     0.60     0.69     5.45     0  07:47        0.69
  WS02003069           JUNCTION     0.40     0.50     5.08     0  03:42        0.50
  WS02003072           JUNCTION     0.47     0.56     4.93     0  03:43        0.56
  WS02003073           JUNCTION     0.28     0.34     4.41     0  03:43        0.34
  WS02003060           JUNCTION     0.36     0.44     5.37     0  03:42        0.44
  WS02003066           JUNCTION     0.21     0.27     5.82     0  03:42        0.27
  WS02003059           JUNCTION     0.66     0.73     5.42     0  06:22        0.73
  WS02003067           JUNCTION     0.53     0.65     5.97     0  03:41        0.65
  WS02004401           JUNCTION     0.60     0.76     6.76     0  03:37        0.76
  WS02004402           JUNCTION     0.64     0.79     6.75     0  03:38        0.79
  WS02004403           JUNCTION     0.66     0.81     6.74     0  03:38        0.81
  WS02004404           JUNCTION     0.74     0.88     6.73     0  03:38        0.88
  WS02004406           JUNCTION     0.75     0.89     6.72     0  03:38        0.89
  WS02004409           JUNCTION     0.42     0.58     6.35     0  03:40        0.58
  WS02004410           JUNCTION     0.45     0.59     6.31     0  03:40        0.59
  WS02004411           JUNCTION     0.47     0.61     6.29     0  03:41        0.61
  WS02004412           JUNCTION     0.49     0.62     6.26     0  03:41        0.62
  WS02004413           JUNCTION     0.65     0.79     6.26     0  03:41        0.79
  WS02004405           JUNCTION     0.73     0.88     6.73     0  03:38        0.88
  WS02006109           JUNCTION     0.68     0.84     7.46     0  03:33        0.84
  WS02006110           JUNCTION     0.68     0.83     7.41     0  03:33        0.83
  WS02006111           JUNCTION     0.19     0.25     6.96     0  03:34        0.25
  WS02006112           JUNCTION     0.76     0.94     6.82     0  03:37        0.94
  WS02006113           JUNCTION     0.29     0.40     7.29     0  03:33        0.40
  WS02006115           JUNCTION     0.49     0.65     6.79     0  03:37        0.65
  WS02006116           JUNCTION     0.57     0.73     6.77     0  03:37        0.73
  WS02006230           JUNCTION     0.61     0.86     7.61     0  03:33        0.86
  WS02006231           JUNCTION     0.41     0.59     7.71     0  03:33        0.59
  WS02006232           JUNCTION     0.54     0.74     7.78     0  03:33        0.74
  WS02006234           JUNCTION     0.45     0.68     7.84     0  03:32        0.68
  WS02006235           JUNCTION     0.48     0.72     7.89     0  03:32        0.72
  WS02006238           JUNCTION     0.50     0.75     7.89     0  03:32        0.75
  WS02006240           JUNCTION     0.40     0.68     7.97     0  03:32        0.68
  WS02006242           JUNCTION     0.45     0.75     8.02     0  03:32        0.75
  WS02006243           JUNCTION     0.33     0.64     8.06     0  03:32        0.64
  WS02006245           JUNCTION     0.32     0.61     8.09     0  03:32        0.61
  WS02006247           JUNCTION     0.35     0.62     8.12     0  03:31        0.62
  WS02006248           JUNCTION     0.30     0.56     8.15     0  03:31        0.56
  WS02006249           JUNCTION     0.34     0.58     8.18     0  03:31        0.58
  WS02006239           JUNCTION     0.46     0.73     7.94     0  03:32        0.73
  WS02006251           JUNCTION     0.33     0.60     8.27     0  03:30        0.60
  WS02006252           JUNCTION     0.30     0.58     8.83     0  03:30        0.58
  WS02006253           JUNCTION     0.35     0.63     8.27     0  03:30        0.62
  WS02006256           JUNCTION     0.88     1.12     8.05     0  03:20        1.12
  WS02004138           JUNCTION     0.15     0.19     7.44     0  07:42        0.19
  WS02004407           JUNCTION     0.19     0.26     6.57     0  03:39        0.26
  WS02006228           JUNCTION     0.66     0.85     7.51     0  03:33        0.85
  WS02006229           JUNCTION     0.63     0.84     7.53     0  03:33        0.84
  WS02006280           JUNCTION     0.04     0.10     8.37     0  02:28        0.10
  WS02006284           JUNCTION     0.33     0.41     8.81     0  02:28        0.41
  WS02006287           JUNCTION     0.06     0.14     9.09     0  02:28        0.14
  WSF200               JUNCTION     0.19     0.26     5.49     0  03:44        0.26
  HS02004901           JUNCTION     0.10     0.17     9.99     0  02:26        0.17
  HS02004881           JUNCTION     0.00     0.01     9.04     0  02:28        0.01
  HS02004876           JUNCTION     0.03     0.07     9.10     0  02:28        0.07
  HS02004870           JUNCTION     0.01     0.02     9.31     0  02:27        0.02
  HS02004862           JUNCTION     0.01     0.03     9.41     0  02:29        0.03
  HS02004856           JUNCTION     0.07     0.09     9.51     0  02:28        0.09
  HS02004852           JUNCTION     0.00     0.01     9.53     0  02:29        0.01
  HS02004848           JUNCTION     0.00     0.01     9.61     0  02:25        0.01
  HS02004842           JUNCTION     0.33     0.34     9.61     0  02:25        0.34
  HS02004837           JUNCTION     0.02     0.03     9.61     0  02:25        0.03
  HS02004830           JUNCTION     0.03     0.05     9.52     0  02:26        0.05
  HS02004824           JUNCTION     0.02     0.03     9.43     0  02:29        0.03
  HS02004817           JUNCTION     0.41     0.47     9.32     0  02:28        0.47
  HS02004807           JUNCTION     0.10     0.15     9.32     0  02:28        0.15
  HS02004802           JUNCTION     0.14     0.19     9.32     0  02:28        0.19
  HS02004799           JUNCTION     0.08     0.17     9.38     0  02:26        0.17
  HS02004792           JUNCTION     0.02     0.05     9.58     0  02:25        0.05
  HS02004788           JUNCTION     0.01     0.04     9.94     0  02:27        0.04
  HS02004785           JUNCTION     0.02     0.08     9.98     0  02:27        0.08
  HS02004777           JUNCTION     0.12     0.19     9.99     0  02:26        0.19
  HS02004770           JUNCTION     0.09     0.16     9.99     0  02:27        0.16
  HS02004480           JUNCTION     0.05     0.13     9.37     0  02:27        0.13
  HS02004479           JUNCTION     0.09     0.16     9.37     0  02:27        0.16
  HS02004478           JUNCTION     0.04     0.08     9.31     0  02:28        0.08
  YS02001745           JUNCTION     0.05     0.07     7.59     0  03:01        0.07
  YS02001748           JUNCTION     0.06     0.08     7.16     0  03:01        0.08
  YS02001751           JUNCTION     0.17     0.27     7.14     0  03:15        0.26
  YS02001754           JUNCTION     0.41     0.54     7.15     0  03:18        0.54
  YS02001762           JUNCTION     0.61     0.74     7.14     0  03:12        0.74
  YS02001765           JUNCTION     0.56     0.69     7.14     0  03:07        0.69
  YS02001767           JUNCTION     0.53     0.65     7.14     0  03:07        0.65
  YS02001770           JUNCTION     0.52     0.65     7.14     0  03:06        0.65
  YS02001774           JUNCTION     0.59     0.72     7.14     0  03:06        0.72
  YS02001779           JUNCTION     0.34     0.46     7.14     0  03:08        0.46
  YS02001882           JUNCTION     0.20     0.29     7.01     0  03:02        0.29
  YS02001884           JUNCTION     0.30     0.39     7.01     0  03:01        0.39
  YS02001759           JUNCTION     0.64     0.78     7.14     0  03:09        0.78
  YS02001887           JUNCTION     0.37     0.47     7.01     0  03:01        0.47
  YS02001890           JUNCTION     0.41     0.50     7.01     0  03:02        0.50
  YS02001898           JUNCTION     0.18     0.26     6.99     0  03:02        0.26
  YS02001901           JUNCTION     0.29     0.38     6.99     0  03:02        0.38
  YS02001904           JUNCTION     0.27     0.36     6.99     0  03:02        0.36
  YS02001907           JUNCTION     0.60     0.70     6.99     0  03:02        0.70
  YS02001910           JUNCTION     0.39     0.48     6.99     0  03:02        0.48
  YS02001915           JUNCTION     0.19     0.27     6.99     0  03:02        0.27
  YS02001918           JUNCTION     0.05     0.06     7.13     0  03:05        0.06
  YS02001619           JUNCTION     0.13     0.22     7.15     0  03:11        0.22
  YS02001629           JUNCTION     0.47     0.59     7.14     0  03:11        0.59
  YS02001641           JUNCTION     0.58     0.70     7.14     0  03:11        0.70
  YS02001644           JUNCTION     0.58     0.71     7.14     0  03:10        0.71
  YS02001652           JUNCTION     0.43     0.55     7.14     0  03:14        0.54
  YS02001655           JUNCTION     0.20     0.29     7.14     0  03:06        0.29
  YS02001920           JUNCTION     0.14     0.15     7.16     0  03:04        0.15
  YS02001923           JUNCTION     0.04     0.05     7.31     0  03:03        0.05
  YS02001926           JUNCTION     0.10     0.12     7.57     0  03:02        0.12
  YS02001929           JUNCTION     0.04     0.05     7.75     0  03:01        0.05
  YS02001658           JUNCTION     0.05     0.09     7.23     0  02:58        0.09
  YS02001661           JUNCTION     0.12     0.15     7.56     0  02:58        0.15
  YS02001664           JUNCTION     0.05     0.07     8.00     0  02:58        0.07
  YS02001622           JUNCTION     0.15     0.24     7.14     0  03:11        0.24
  YS02001633           JUNCTION     0.56     0.69     7.14     0  03:10        0.69
  YS02001649           JUNCTION     0.62     0.75     7.14     0  03:08        0.75
  YS02001757           JUNCTION     0.74     0.88     7.14     0  03:12        0.88
  YS02001895           JUNCTION     0.17     0.25     7.00     0  03:02        0.25
  YS02001625           JUNCTION     0.43     0.54     7.14     0  03:11        0.54
  YS02163301           JUNCTION     0.50     0.63     7.14     0  03:09        0.63
  YS02163601           JUNCTION     0.61     0.74     7.14     0  03:10        0.74
  YS02164001           JUNCTION     0.56     0.68     7.14     0  03:11        0.68
  YS02001647           JUNCTION     0.41     0.53     7.14     0  03:14        0.53
  YSB1154              JUNCTION     0.22     0.31     9.37     0  02:27        0.31
  YSB6556              JUNCTION     0.12     0.20     9.37     0  02:26        0.20
  YSB1174              JUNCTION     0.18     0.26     9.37     0  02:27        0.26
  YSB1171              JUNCTION     0.38     0.47     9.37     0  02:27        0.47
  YS02006553           JUNCTION     0.61     0.71     6.99     0  03:02        0.71
  YS02006561           JUNCTION     0.10     0.14     6.80     0  03:02        0.14
  YS02006556           JUNCTION     0.58     0.68     6.99     0  03:02        0.68
  YS02006558           JUNCTION     0.62     0.72     6.99     0  03:02        0.72
  YS02001783           JUNCTION     0.16     0.24     6.38     0  03:02        0.24
  YS02001784           JUNCTION     0.19     0.28     6.35     0  03:02        0.28
  YS02001786           JUNCTION     0.17     0.24     6.27     0  03:03        0.24
  YS02001788           JUNCTION     0.12     0.17     6.15     0  03:03        0.17
  YS02001790           JUNCTION     0.14     0.21     5.85     0  03:04        0.21
  YS02001791           JUNCTION     0.09     0.14     5.61     0  03:08        0.14
  YS02001793           JUNCTION     0.06     0.09     4.92     0  03:04        0.09
  WS02004139           JUNCTION     0.59     0.71     5.62     0  07:49        0.71
  WSC                  OUTFALL      0.28     0.34     1.01     0  03:44        0.34
  3                    OUTFALL      0.03     0.12     6.12     0  03:20        0.11
  4                    OUTFALL      0.00     0.08     7.08     0  03:31        0.08
  5                    OUTFALL      0.00     0.00     5.00     0  00:00        0.00
  JK-storage           STORAGE      0.13     3.02     3.82     0  00:20        3.02
  CC-storage           STORAGE      0.00     0.03     7.03     0  03:58        0.03
  XR-storage           STORAGE      5.33     6.55     4.55     0  05:53        6.55
  
  
  *******************
  Node Inflow Summary
  *******************
  
  -------------------------------------------------------------------------------------------------
                                  Maximum  Maximum                  Lateral       Total        Flow
                                  Lateral    Total  Time of Max      Inflow      Inflow     Balance
                                   Inflow   Inflow   Occurrence      Volume      Volume       Error
  Node                 Type           LPS      LPS  days hr:min    10^6 ltr    10^6 ltr     Percent
  -------------------------------------------------------------------------------------------------
  WS02001211           JUNCTION      7.35   387.75     0  07:50       0.207        6.52       0.673
  WS02001212           JUNCTION      0.00   387.82     0  07:50           0        6.48       0.386
  WS02001213           JUNCTION      0.00   387.94     0  07:50           0        6.46       0.367
  WS02003069           JUNCTION      0.32   719.13     0  03:42     0.00902        12.1       0.235
  WS02003072           JUNCTION      0.00   718.92     0  03:42           0          12       0.292
  WS02003073           JUNCTION      1.82   720.58     0  03:43      0.0514        12.1       0.332
  WS02003060           JUNCTION     16.53   718.91     0  03:41       0.466        12.1       0.226
  WS02003066           JUNCTION      0.00   413.10     0  03:41           0        5.24       0.058
  WS02003059           JUNCTION      0.00   388.20     0  07:50           0        6.44       0.667
  WS02003067           JUNCTION      0.00   413.09     0  03:41           0        5.25       0.132
  WS02004401           JUNCTION      0.00   416.92     0  03:35           0        5.42       0.291
  WS02004402           JUNCTION      0.00   416.00     0  03:36           0         5.4       0.283
  WS02004403           JUNCTION      0.00   415.58     0  03:38           0        5.38       0.266
  WS02004404           JUNCTION      0.16   415.67     0  03:38     0.00457        5.38       0.209
  WS02004406           JUNCTION      0.00   415.71     0  03:38           0        5.35       0.514
  WS02004409           JUNCTION      0.00   415.49     0  03:39           0        5.32       0.182
  WS02004410           JUNCTION      0.00   414.62     0  03:39           0        5.31       0.221
  WS02004411           JUNCTION      0.00   413.92     0  03:40           0         5.3       0.239
  WS02004412           JUNCTION      0.00   413.52     0  03:40           0        5.28       0.273
  WS02004413           JUNCTION      0.00   413.17     0  03:41           0        5.27       0.431
  WS02004405           JUNCTION      0.04   415.71     0  03:38     0.00107        5.36       0.314
  WS02006109           JUNCTION      1.23   421.32     0  03:33      0.0347        5.49       0.290
  WS02006110           JUNCTION      0.00   421.37     0  03:33           0        5.47       0.276
  WS02006111           JUNCTION      0.00   431.57     0  03:33           0        5.45       0.044
  WS02006112           JUNCTION      3.77   423.41     0  03:34      0.0134        5.46       0.429
  WS02006113           JUNCTION      0.00   421.35     0  03:34           0        5.46       0.100
  WS02006115           JUNCTION      0.00   420.40     0  03:34           0        5.44       0.251
  WS02006116           JUNCTION      0.00   418.27     0  03:35           0        5.43       0.217
  WS02006230           JUNCTION     10.28   390.65     0  03:32        0.29        4.92       0.109
  WS02006231           JUNCTION      0.00   381.41     0  03:32           0        4.64       0.181
  WS02006232           JUNCTION      0.00   381.54     0  03:32           0        4.65       0.231
  WS02006234           JUNCTION      0.00   382.53     0  03:32           0        4.66       0.070
  WS02006235           JUNCTION      0.00   382.71     0  03:32           0        4.69       0.143
  WS02006238           JUNCTION      0.00   325.39     0  04:20           0        3.06       0.129
  WS02006240           JUNCTION      0.00   313.52     0  04:20           0        3.04       0.150
  WS02006242           JUNCTION      0.00   310.50     0  03:31           0        3.03       0.210
  WS02006243           JUNCTION      0.00   318.17     0  03:30           0        3.02      -0.161
  WS02006245           JUNCTION      0.00   322.68     0  03:30           0        3.03       0.182
  WS02006247           JUNCTION      0.00   327.28     0  03:30           0        3.03       0.096
  WS02006248           JUNCTION      0.00   331.63     0  03:30           0        3.03      -0.005
  WS02006249           JUNCTION      0.00   395.96     0  03:30           0        3.06       0.217
  WS02006239           JUNCTION      0.00   319.31     0  04:20           0        3.05       0.164
  WS02006251           JUNCTION      0.08   400.06     0  03:30     0.00217        3.12       0.111
  WS02006252           JUNCTION      0.00   399.99     0  03:30           0        2.99       0.007
  WS02006253           JUNCTION      0.58    30.31     0  04:54     0.00173       0.122       1.029
  WS02006256           JUNCTION      0.00   310.70     0  03:20           0         2.2       0.088
  WS02004138           JUNCTION      0.00   380.00     0  07:40           0        6.35       0.066
  WS02004407           JUNCTION      0.00   415.56     0  03:38           0        5.32       0.083
  WS02006228           JUNCTION      0.00   420.11     0  03:33           0        5.47       0.197
  WS02006229           JUNCTION      0.00   420.16     0  03:33           0        5.47       0.165
  WS02006280           JUNCTION      0.00    90.52     0  02:28           0       0.556       0.013
  WS02006284           JUNCTION      0.10    90.52     0  02:28      0.0027       0.558       0.210
  WS02006287           JUNCTION      0.00    90.43     0  02:28           0       0.556       0.125
  WSF200               JUNCTION      0.00   413.10     0  03:42           0        5.24       0.050
  HS02004901           JUNCTION      4.68     4.68     0  02:17      0.0161      0.0162      12.135
  HS02004881           JUNCTION      1.89    15.48     0  02:27       0.007      0.0721       0.229
  HS02004876           JUNCTION      3.00    13.84     0  02:26      0.0133      0.0656       0.789
  HS02004870           JUNCTION      3.33    10.91     0  02:26      0.0132      0.0524       0.201
  HS02004862           JUNCTION      2.84     7.81     0  02:27      0.0187      0.0393       0.420
  HS02004856           JUNCTION      2.46     5.00     0  02:26     0.00995       0.022       6.961
  HS02004852           JUNCTION      0.00     2.69     0  02:27           0      0.0121       0.383
  HS02004848           JUNCTION      5.41     5.41     0  02:29      0.0309      0.0309       0.133
  HS02004842           JUNCTION      0.00     4.49     0  00:03           0      0.0319      68.950
  HS02004837           JUNCTION     11.67    14.30     0  02:24       0.202       0.221       0.367
  HS02004830           JUNCTION      0.15    14.44     0  02:25     0.00423       0.211       0.586
  HS02004824           JUNCTION      6.09    20.47     0  02:29      0.0408       0.251       0.215
  HS02004817           JUNCTION      0.60    21.06     0  02:29      0.0169       0.267       6.648
  HS02004807           JUNCTION      6.26    26.79     0  02:28      0.0244       0.275       1.560
  HS02004802           JUNCTION      0.00    26.82     0  02:30           0       0.271       1.524
  HS02004799           JUNCTION      4.81    54.23     0  02:25      0.0197       0.262       0.861
  HS02004792           JUNCTION     21.71    49.57     0  02:25        0.09       0.243       0.172
  HS02004788           JUNCTION      8.20    29.09     0  02:26      0.0744       0.154       0.254
  HS02004785           JUNCTION      0.15    21.21     0  02:26     0.00423      0.0821       0.581
  HS02004777           JUNCTION      0.03    21.44     0  02:23    0.000846      0.0823       6.697
  HS02004770           JUNCTION     18.25    22.20     0  02:20      0.0686      0.0831       3.876
  HS02004480           JUNCTION      0.00    63.81     0  02:26           0       0.301       0.217
  HS02004479           JUNCTION      0.00     9.75     0  02:29           0      0.0508       1.452
  HS02004478           JUNCTION      0.00    90.43     0  02:28           0       0.556       0.122
  YS02001745           JUNCTION     28.99    28.99     0  03:01       0.355       0.355       0.086
  YS02001748           JUNCTION      0.04    29.02     0  03:01     0.00127       0.356       0.042
  YS02001751           JUNCTION      0.01    52.50     0  04:40     0.00031        0.45       0.296
  YS02001754           JUNCTION      0.26   173.33     0  04:48     0.00733       0.816       1.340
  YS02001762           JUNCTION      0.00    43.73     0  03:08           0       0.474       2.938
  YS02001765           JUNCTION      0.00    65.12     0  04:28           0       0.464       3.182
  YS02001767           JUNCTION      0.54    57.10     0  04:52      0.0151       0.469       4.106
  YS02001770           JUNCTION     38.14    44.70     0  02:58        0.43       0.448       3.697
  YS02001774           JUNCTION      0.00    20.14     0  02:34           0      0.0768      23.152
  YS02001779           JUNCTION      0.01    11.20     0  04:29    0.000141      0.0451      12.276
  YS02001882           JUNCTION      0.00     1.77     0  02:22           0      0.0029      85.487
  YS02001884           JUNCTION      0.00     5.29     0  02:11           0      0.0119      53.068
  YS02001759           JUNCTION     37.43    85.82     0  04:19       0.405       0.852       1.845
  YS02001887           JUNCTION     49.89    49.89     0  02:55       0.502       0.507       1.270
  YS02001890           JUNCTION      0.00    49.68     0  02:57           0        0.49       1.452
  YS02001898           JUNCTION      0.00    49.50     0  02:59           0        0.48       0.351
  YS02001901           JUNCTION      0.00    49.58     0  03:01           0        0.48       0.996
  YS02001904           JUNCTION      0.00    49.43     0  03:02           0        0.48       0.931
  YS02001907           JUNCTION      0.00    89.98     0  03:03           0        1.03       2.071
  YS02001910           JUNCTION      0.00    40.81     0  03:01           0       0.556       1.680
  YS02001915           JUNCTION     26.27    40.65     0  03:01       0.309       0.559       0.653
  YS02001918           JUNCTION      0.00    14.54     0  03:04           0       0.251       0.290
  YS02001619           JUNCTION     25.45    25.45     0  03:01       0.303       0.303       0.164
  YS02001629           JUNCTION      0.00    28.54     0  02:53           0       0.289       1.910
  YS02001641           JUNCTION      0.00    57.71     0  03:04           0       0.605       2.062
  YS02001644           JUNCTION     27.50    82.00     0  03:04        0.34       0.926       1.633
  YS02001652           JUNCTION      0.00    53.43     0  04:52           0       0.409       2.217
  YS02001655           JUNCTION      0.15    35.23     0  02:58     0.00434       0.367       0.794
  YS02001920           JUNCTION      2.87    14.55     0  03:03      0.0809       0.253       0.627
  YS02001923           JUNCTION      0.04    11.68     0  03:02     0.00106       0.172       0.113
  YS02001926           JUNCTION      0.05    11.69     0  03:01     0.00147       0.173       0.823
  YS02001929           JUNCTION     11.65    11.65     0  03:01       0.171       0.171       0.105
  YS02001658           JUNCTION      0.00    35.07     0  02:58           0       0.358       0.053
  YS02001661           JUNCTION      0.00    35.07     0  02:58           0       0.359       0.193
  YS02001664           JUNCTION     35.07    35.07     0  02:58       0.359       0.359       0.037
  YS02001622           JUNCTION      0.00    26.32     0  02:53           0       0.302       0.769
  YS02001633           JUNCTION     27.99    60.17     0  02:54       0.352       0.628       2.902
  YS02001649           JUNCTION      0.00   125.29     0  03:14           0        1.28       1.816
  YS02001757           JUNCTION      0.00   308.25     0  04:20           0        2.67       2.559
  YS02001895           JUNCTION      0.00    49.53     0  03:00           0       0.483       0.598
  YS02001625           JUNCTION      0.00    29.25     0  02:53           0         0.3       4.910
  YS02163301           JUNCTION      0.00    30.62     0  02:54           0        0.29       4.233
  YS02163601           JUNCTION      0.11    57.55     0  03:04      0.0031       0.609       3.205
  YS02164001           JUNCTION      0.00    57.73     0  02:54           0         0.6       1.928
  YS02001647           JUNCTION      0.00    84.24     0  02:55           0       0.899       1.337
  YSB1154              JUNCTION      5.33     5.33     0  02:22      0.0238      0.0252       6.085
  YSB6556              JUNCTION      0.00     5.28     0  02:26           0      0.0262       4.977
  YSB1174              JUNCTION      5.33     5.33     0  02:16      0.0175      0.0185       7.462
  YSB1171              JUNCTION      0.00     9.81     0  02:25           0      0.0503      14.374
  YS02006553           JUNCTION      0.00    90.11     0  03:04           0        1.01       1.353
  YS02006561           JUNCTION      0.00   131.69     0  03:02           0        1.43       0.033
  YS02006556           JUNCTION      0.00    90.23     0  03:04           0        1.02       0.965
  YS02006558           JUNCTION     42.36   131.71     0  03:01       0.458        1.45       0.289
  YS02001783           JUNCTION      0.00   131.68     0  03:02           0        1.43       0.077
  YS02001784           JUNCTION      1.06   132.74     0  03:02      0.0299        1.45       0.129
  YS02001786           JUNCTION      0.06   132.78     0  03:03     0.00159        1.45       0.128
  YS02001788           JUNCTION      0.07   132.84     0  03:03       0.002        1.45       0.069
  YS02001790           JUNCTION      0.15   132.99     0  03:03     0.00437        1.46       0.091
  YS02001791           JUNCTION      0.00   132.98     0  03:04           0        1.46       0.043
  YS02001793           JUNCTION      0.00   132.98     0  03:04           0        1.46       0.020
  WS02004139           JUNCTION      0.32   380.32     0  07:42     0.00905        6.36       0.656
  WSC                  OUTFALL       0.00   720.32     0  03:44           0          12       0.000
  3                    OUTFALL       0.00   202.07     0  03:20           0       0.535       0.000
  4                    OUTFALL       0.00    68.05     0  03:31           0      0.0309       0.000
  5                    OUTFALL       0.00     0.00     0  00:00           0           0       0.000 ltr
  JK-storage           STORAGE       0.00   134.54     0  03:07           0        1.61     -26.872
  CC-storage           STORAGE       0.00   209.46     0  03:10           0        2.24     -25.082
  XR-storage           STORAGE     247.75   247.75     0  03:01        6.23        6.83      -0.000
  
  
  **********************
  Node Surcharge Summary
  **********************
  
  Surcharging occurs when water rises above the top of the highest conduit.
  ---------------------------------------------------------------------
                                               Max. Height   Min. Depth
                                   Hours       Above Crown    Below Rim
  Node                 Type      Surcharged         Meters       Meters
  ---------------------------------------------------------------------
  WS02006109           JUNCTION        0.19          0.024        1.796
  WS02006232           JUNCTION        0.27          0.037        1.443
  WS02006235           JUNCTION        0.08          0.011        1.279
  WS02006238           JUNCTION        0.14          0.030        1.400
  WS02006242           JUNCTION        0.08          0.018        0.802
  WS02006252           JUNCTION        0.59          0.184        0.916
  WS02006228           JUNCTION        0.17          0.025        2.175
  
  
  *********************
  Node Flooding Summary
  *********************
  
  No nodes were flooded.
  
  
  **********************
  Storage Volume Summary
  **********************
  
  --------------------------------------------------------------------------------------------------
                         Average     Avg  Evap Exfil       Maximum     Max    Time of Max    Maximum
                          Volume    Pcnt  Pcnt  Pcnt        Volume    Pcnt     Occurrence    Outflow
  Storage Unit           1000 m3    Full  Loss  Loss       1000 m3    Full    days hr:min        LPS
  --------------------------------------------------------------------------------------------------
  JK-storage               0.006       2     0     0         0.151      52       0  00:20     310.70
  CC-storage               0.014       0     0     0         0.087       1       0  03:58     399.99
  XR-storage               0.639      69     0     0         0.786      85       0  05:53     380.00
  
  
  ***********************
  Outfall Loading Summary
  ***********************
  
  -----------------------------------------------------------
                         Flow       Avg       Max       Total
                         Freq      Flow      Flow      Volume
  Outfall Node           Pcnt       LPS       LPS    10^6 ltr
  -----------------------------------------------------------
  WSC                  100.00    502.65    720.32      12.019
  3                     38.07     76.54    202.07       0.535
  4                      8.84     21.31     68.05       0.031
  5                      0.00      0.00      0.00       0.000
  -----------------------------------------------------------
  System                36.73    600.50    876.11      12.584
  
  
  ********************
  Link Flow Summary
  ********************
  
  -----------------------------------------------------------------------------
                                 Maximum  Time of Max   Maximum    Max/    Max/
                                  |Flow|   Occurrence   |Veloc|    Full    Full
  Link                 Type          LPS  days hr:min     m/sec    Flow   Depth
  -----------------------------------------------------------------------------
  WS02003066WSF200     CONDUIT    413.10     0  03:42      2.60    0.07    0.20
  WS02006287WS02006284 CONDUIT     90.42     0  02:28      1.21    0.04    0.15
  WS02006284WS02006280 CONDUIT     90.52     0  02:28      1.46    0.04    0.13
  WS02006280WS02006229 CONDUIT     90.52     0  02:28      2.35    0.02    0.10
  WS02006229WS02006228 CONDUIT    420.11     0  03:33      0.84    1.39    1.00
  WS02006256WS02006235 CONDUIT    149.96     0  00:25      2.14    1.59    1.00
  WS02006253WS02006251 CONDUIT     46.02     0  05:41      0.35    0.14    0.87
  WS02006252WS02006251 CONDUIT    399.98     0  03:30      3.18    1.47    1.00
  WS02006251WS02006249 CONDUIT    395.96     0  03:30      1.14    1.14    0.84
  WS02006249WS02006248 CONDUIT    331.63     0  03:30      1.08    1.82    0.80
  WS02006248WS02006247 CONDUIT    327.28     0  03:30      1.05    0.71    0.84
  WS02006247WS02006245 CONDUIT    322.68     0  03:30      1.02    2.56    0.87
  WS02006245WS02006243 CONDUIT    318.17     0  03:30      1.08    0.94    0.88
  WS02006243WS02006242 CONDUIT    310.50     0  03:31      0.89    0.66    0.96
  WS02006242WS02006240 CONDUIT    313.52     0  04:20      0.87    1.25    0.98
  WS02006240WS02006239 CONDUIT    319.31     0  04:20      0.92    1.00    0.98
  WS02006239WS02006238 CONDUIT    325.39     0  04:20      0.89    1.04    1.00
  WS02006238WS02006235 CONDUIT    325.80     0  04:20      0.89    0.73    1.00
  WS02006235WS02006234 CONDUIT    382.53     0  03:32      1.01    4.04    0.97
  WS02006234WS02006232 CONDUIT    381.54     0  03:32      0.99    0.77    0.99
  WS02006232WS02006231 CONDUIT    381.41     0  03:32      1.04    0.80    0.91
  WS02006231WS02006230 CONDUIT    380.37     0  03:32      1.31    5.77    0.76
  WS02006230WS02006229 CONDUIT    390.36     0  03:33      1.01    8.69    1.00
  WS02006228WS02006109 CONDUIT    420.09     0  03:33      0.84    1.84    1.00
  WS02006116WS02004401 CONDUIT    416.92     0  03:35      0.76    0.57    0.74
  WS02006115WS02006116 CONDUIT    418.27     0  03:35      0.94    0.54    0.66
  WS02006113WS02006111 CONDUIT    431.57     0  03:33      2.26    0.52    0.41
  WS02006112WS02006115 CONDUIT    420.40     0  03:34      0.64    0.25    0.79
  WS02006111WS02006112 CONDUIT    423.03     0  03:34      1.26    0.20    0.65
  WS02006110WS02006113 CONDUIT    421.35     0  03:34      1.05    0.38    0.75
  WS02006109WS02006110 CONDUIT    421.37     0  03:33      0.85    0.81    0.95
  WS02004411WS02004412 CONDUIT    413.52     0  03:40      0.82    0.59    0.62
  WS02004401WS02004402 CONDUIT    416.00     0  03:36      0.82    0.50    0.77
  WS02004413WS02003067 CONDUIT    413.09     0  03:41      0.96    0.18    0.54
  WS02004412WS02004413 CONDUIT    413.17     0  03:41      0.70    0.28    0.70
  WS02004410WS02004411 CONDUIT    413.92     0  03:40      0.84    0.57    0.60
  WS02004409WS02004410 CONDUIT    414.62     0  03:39      0.87    0.54    0.59
  WS02004407WS02004409 CONDUIT    415.49     0  03:39      1.35    0.15    0.42
  WS02004406WS02004407 CONDUIT    415.56     0  03:38      0.89    0.19    0.57
  WS02004405WS02004406 CONDUIT    415.71     0  03:38      0.74    0.82    0.88
  WS02004404WS02004405 CONDUIT    415.67     0  03:38      0.95    4.07    0.88
  WS02004403WS02004404 CONDUIT    415.51     0  03:38      0.85    0.30    0.84
  WS02004402WS02004403 CONDUIT    415.58     0  03:38      0.87    0.60    0.80
  WS02004139WS02001211 CONDUIT    380.40     0  07:50      0.58    0.48    0.57
  WS02004138WS02004139 CONDUIT    380.00     0  07:42      2.39    0.08    0.43
  WS02003067WS02003066 CONDUIT    413.10     0  03:41      1.04    0.13    0.38
  WS02001213WS02003059 CONDUIT    388.20     0  07:50      0.67    0.64    0.70
  WS02001212WS02001213 CONDUIT    387.94     0  07:50      1.29    0.60    0.41
  WS02001211WS02001212 CONDUIT    387.82     0  07:50      0.77    0.30    0.61
  WS02003072WS02003073 CONDUIT    718.76     0  03:43      1.57    1.55    0.42
  WS02003069WS02003072 CONDUIT    718.92     0  03:42      1.49    0.35    0.44
  WS02003060WS02003069 CONDUIT    718.81     0  03:42      1.75    0.28    0.39
  WS02003059WS02003060 CONDUIT    388.57     0  07:50      0.91    0.25    0.59
  HS02004901HS02004770 CONDUIT      4.17     0  02:23      0.03    0.02    0.24
  HS02004876HS02004881 CONDUIT     13.79     0  02:28      0.31    0.15    0.06
  HS02004870HS02004876 CONDUIT     10.90     0  02:27      0.22    0.01    0.07
  HS02004842HS02004848 CONDUIT      2.84     0  02:37      0.02    0.00    0.26
  HS02004837HS02004842 CONDUIT      4.49     0  00:03      0.42    0.00    0.27
  HS02004830HS02004837 CONDUIT     14.29     0  02:25      0.35    0.01    0.06
  HS02004824HS02004830 CONDUIT     14.44     0  02:26      0.40    0.02    0.05
  HS02004817HS02004824 CONDUIT     20.46     0  02:29      0.17    0.01    0.36
  HS02004770HS02004777 CONDUIT     21.41     0  02:23      0.12    0.04    0.25
  HS02004799HS02004480 CONDUIT     54.12     0  02:26      0.37    0.07    0.21
  HS02004792HS02004799 CONDUIT     49.54     0  02:25      0.44    0.03    0.16
  HS02004788HS02004792 CONDUIT     29.06     0  02:27      0.61    0.02    0.07
  HS02004785HS02004788 CONDUIT     21.13     0  02:27      0.34    0.16    0.09
  HS02004777HS02004785 CONDUIT     21.06     0  02:26      0.15    0.03    0.20
  HS02004480HS02004478 CONDUIT     63.77     0  02:27      0.66    0.27    0.14
  HS02004479HS02004480 CONDUIT      9.83     0  02:29      0.16    0.01    0.21
  HS02004862HS02004870 CONDUIT      7.79     0  02:28      0.32    0.01    0.03
  HS02004848HS02004852 CONDUIT      2.69     0  02:27      0.20    0.00    0.02
  HS02004856HS02004862 CONDUIT      4.98     0  02:28      0.23    0.00    0.03
  HS02004852HS02004856 CONDUIT      2.67     0  02:29      0.05    0.00    0.07
  HS02004802HS02004478 CONDUIT     26.91     0  02:31      0.20    0.02    0.19
  HS02004478WS02006287 CONDUIT     90.43     0  02:28      0.90    0.03    0.11
  HS02004817HS02004807 CONDUIT     21.20     0  02:32      0.07    0.01    0.44
  HS02004807HS02004802 CONDUIT     26.82     0  02:30      0.19    0.05    0.23
  YS02001759YS02001757 CONDUIT     82.91     0  02:59      0.12    0.06    0.83
  YS02001762YS02001759 CONDUIT     65.24     0  04:36      0.17    0.08    0.76
  YS02001765YS02001762 CONDUIT     43.73     0  03:08      0.22    0.04    0.72
  YS02001770YS02001767 CONDUIT     45.77     0  02:58      0.27    0.18    0.65
  YS02001774YS02001770 CONDUIT     20.14     0  02:34      0.11    0.01    0.67
  YS02001779YS02001774 CONDUIT     11.77     0  04:20      0.06    0.01    0.59
  YS02001649YS02001757 CONDUIT    122.84     0  03:14      0.18    0.07    0.82
  YS02001767YS02001765 CONDUIT     65.12     0  04:28      0.25    0.08    0.67
  YS02006561YS02001783 CONDUIT    131.68     0  03:02      1.42    0.07    0.24
  YS02001783YS02001784 CONDUIT    131.68     0  03:02      0.93    0.18    0.32
  YS02001784YS02001785 CONDUIT    132.72     0  03:03      0.95    0.31    0.32
  YS02001788YS02001790 CONDUIT    132.84     0  03:03      1.48    0.10    0.23
  YS02001790YS02001791 CONDUIT    132.98     0  03:04      1.69    0.14    0.21
  YS02001791YS02001793 CONDUIT    132.98     0  03:04      3.36    0.06    0.14
  YS02001910YS02001907 CONDUIT     40.74     0  03:04      0.50    0.02    0.59
  YS02001786YS02001788 CONDUIT    132.77     0  03:03      1.33    0.26    0.25
  YS02001915YS02001910 CONDUIT     40.81     0  03:01      0.44    0.02    0.38
  YS02001918YS02001915 CONDUIT     14.53     0  03:05      0.44    0.01    0.17
  YS02001923YS02001920 CONDUIT     11.68     0  03:03      0.28    0.01    0.10
  YS02001926YS02001923 CONDUIT     11.65     0  03:02      0.34    0.02    0.09
  YS02001929YS02001926 CONDUIT     11.64     0  03:01      0.35    0.01    0.09
  YS02001920YS02001918 CONDUIT     14.54     0  03:04      0.32    0.01    0.11
  YS02001629YS02163301 CONDUIT     30.62     0  02:54      0.08    0.04    0.61
  YS02001619YS02001622 CONDUIT     26.32     0  02:53      0.50    0.04    0.23
  YS02001622YS02001625 CONDUIT     29.25     0  02:53      0.15    0.02    0.39
  YS02001625YS02001629 CONDUIT     28.54     0  02:53      0.15    0.01    0.38
  YS02163301YS02001633 CONDUIT     32.71     0  02:54      0.07    0.03    0.66
  YS02163601YS02164001 CONDUIT     57.73     0  02:54      0.10    0.05    0.71
  YS02164001YS02001641 CONDUIT     57.71     0  03:04      0.10    0.08    0.69
  YS02001641YS02001644 CONDUIT     55.88     0  03:13      0.11    0.18    0.71
  YS02001647YS02001649 CONDUIT     83.74     0  03:30      0.16    0.04    0.64
  YS02006553YS02006556 CONDUIT     90.23     0  03:04      0.18    0.08    0.67
  YS02006556YS02006558 CONDUIT     90.28     0  03:04      0.15    0.07    0.70
  YSB6556YSB1171       CONDUIT      5.31     0  02:29      0.03    0.01    0.48
  YS02001907YS02006553 CONDUIT     90.11     0  03:04      0.13    0.11    0.77
  YS02006558YS02006561 CONDUIT    131.69     0  03:02      1.82    0.29    0.30
  YS02001633YS02163601 CONDUIT     57.44     0  03:04      0.11    0.06    0.71
  YS02001644YS02001647 CONDUIT     84.24     0  02:55      0.18    0.05    0.62
  YS02001745YS02001748 CONDUIT     28.98     0  03:01      1.10    0.01    0.07
  YS02001748YS02001751 CONDUIT     29.02     0  03:01      0.88    0.01    0.17
  YS02001751YS02001754 CONDUIT     71.39     0  04:32      0.80    0.03    0.37
  YS02001754YS02001757 CONDUIT    139.44     0  04:48      0.33    0.06    0.71
  YS02001882YS02001884 CONDUIT      1.77     0  02:22      0.05    0.00    0.31
  YS02001884YS02001887 CONDUIT      5.29     0  02:11      0.04    0.01    0.40
  YS02001890YS02001895 CONDUIT     49.53     0  03:00      0.18    0.02    0.38
  YS02001895YS02001898 CONDUIT     49.50     0  02:59      0.39    0.09    0.24
  YS02001898YS02001901 CONDUIT     49.58     0  03:01      0.23    0.03    0.32
  YS02001901YS02001904 CONDUIT     49.43     0  03:02      0.19    0.08    0.37
  YS02001904YS02001907 CONDUIT     49.59     0  03:03      0.12    0.02    0.53
  YS02001887YS02001890 CONDUIT     49.68     0  02:57      0.14    0.09    0.46
  YS02001652YS02001649 CONDUIT     51.81     0  04:29      0.23    0.03    0.65
  YS02001655YS02001652 CONDUIT     43.06     0  03:06      0.86    0.02    0.40
  YS02001658YS02001655 CONDUIT     35.07     0  02:58      1.00    0.01    0.19
  YS02001661YS02001658 CONDUIT     35.07     0  02:58      1.12    0.01    0.08
  YS02001664YS02001661 CONDUIT     35.07     0  02:58      0.72    0.01    0.11
  YSB1154YSB6556       CONDUIT      5.28     0  02:26      0.19    0.01    0.37
  YSB1174YSB1171       CONDUIT      4.98     0  02:20      0.03    0.01    0.48
  YSB1171HS02004479    CONDUIT      9.75     0  02:29      0.54    0.01    0.36
  HS02004881HS02006253 CONDUIT     15.48     0  02:28      1.16    0.00    0.21
  YS02001793JiankangQianchi CONDUIT    134.54     0  03:07     10.16    0.01    0.50
  YS02001757CaochengTiaoxuchi CONDUIT    209.46     0  03:10      0.62    0.09    0.45
  WSF200WS02003060     CONDUIT    413.14     0  03:42      1.67    0.09    0.29
  1                    CONDUIT    720.32     0  03:44      3.04    0.25    0.34
  2                    CONDUIT     68.05     0  03:31      4.35    0.16    0.27
  3                    CONDUIT    202.07     0  03:20      7.84    0.32    0.39
  4                    CONDUIT      0.00     0  00:00      0.00    0.00    0.00
  CC-Pump-1            PUMP       200.00     0  03:20              1.00
  CC-Pump-2            PUMP       200.00     0  03:00              1.00
  JK-Pump-1            PUMP       299.91     0  00:30              1.00
  JK-Pump-2            PUMP       300.00     0  03:20              1.00
  XR-Pump-1            PUMP        95.00     0  00:00              1.00
  XR-Pump-2            PUMP        95.00     0  00:30              1.00
  XR-Pump-3            PUMP        95.00     0  00:20              1.00
  XR-Pump-4            PUMP        95.00     0  00:20              1.00
  
  
  ***************************
  Flow Classification Summary
  ***************************
  
  -------------------------------------------------------------------------------------
                      Adjusted    ---------- Fraction of Time in Flow Class ---------- 
                       /Actual         Up    Down  Sub   Sup   Up    Down  Norm  Inlet 
  Conduit               Length    Dry  Dry   Dry   Crit  Crit  Crit  Crit  Ltd   Ctrl  
  -------------------------------------------------------------------------------------
  WS02003066WSF200        1.00   0.03  0.02  0.00  0.00  0.95  0.00  0.00  0.84  0.00
  WS02006287WS02006284    1.00   0.04  0.02  0.00  0.76  0.18  0.00  0.00  0.81  0.00
  WS02006284WS02006280    1.00   0.05  0.00  0.00  0.00  0.00  0.00  0.95  0.00  0.00
  WS02006280WS02006229    1.00   0.05  0.00  0.00  0.00  0.00  0.00  0.95  0.00  0.00
  WS02006229WS02006228    1.00   0.00  0.00  0.00  1.00  0.00  0.00  0.00  0.00  0.00
  WS02006256WS02006235    1.00   0.01  0.00  0.00  0.99  0.00  0.00  0.00  0.00  0.00
  WS02006253WS02006251    1.00   0.01  0.04  0.00  0.95  0.00  0.00  0.00  0.00  0.00
  WS02006252WS02006251    1.00   0.10  0.00  0.00  0.00  0.00  0.89  0.00  0.00  0.00
  WS02006251WS02006249    1.00   0.00  0.00  0.00  1.00  0.00  0.00  0.00  0.32  0.00
  WS02006249WS02006248    1.00   0.00  0.00  0.00  0.87  0.00  0.12  0.00  0.00  0.00
  WS02006248WS02006247    1.00   0.00  0.00  0.00  0.97  0.00  0.00  0.03  0.22  0.00
  WS02006247WS02006245    1.00   0.00  0.00  0.00  0.97  0.00  0.00  0.02  0.00  0.00
  WS02006245WS02006243    1.00   0.01  0.00  0.00  0.94  0.00  0.00  0.05  0.02  0.00
  WS02006243WS02006242    1.00   0.01  0.00  0.00  0.99  0.00  0.00  0.00  0.27  0.00
  WS02006242WS02006240    1.00   0.01  0.00  0.00  0.99  0.00  0.00  0.00  0.00  0.00
  WS02006240WS02006239    1.00   0.01  0.00  0.00  0.95  0.00  0.00  0.04  0.02  0.00
  WS02006239WS02006238    1.00   0.01  0.00  0.00  0.99  0.00  0.00  0.00  0.00  0.00
  WS02006238WS02006235    1.00   0.01  0.00  0.00  0.99  0.00  0.00  0.00  0.00  0.00
  WS02006235WS02006234    1.00   0.01  0.00  0.00  0.95  0.00  0.04  0.00  0.00  0.00
  WS02006234WS02006232    1.00   0.01  0.00  0.00  0.99  0.00  0.00  0.00  0.07  0.00
  WS02006232WS02006231    1.00   0.01  0.00  0.00  0.99  0.00  0.00  0.00  0.00  0.00
  WS02006231WS02006230    1.00   0.01  0.00  0.00  0.24  0.00  0.75  0.00  0.00  0.00
  WS02006230WS02006229    1.00   0.00  0.00  0.00  0.99  0.00  0.00  0.01  0.00  0.00
  WS02006228WS02006109    1.00   0.00  0.00  0.00  1.00  0.00  0.00  0.00  0.00  0.00
  WS02006116WS02004401    1.00   0.03  0.00  0.00  0.97  0.00  0.00  0.00  0.00  0.00
  WS02006115WS02006116    1.00   0.03  0.00  0.00  0.96  0.00  0.00  0.01  0.00  0.00
  WS02006113WS02006111    1.00   0.02  0.00  0.00  0.00  0.98  0.00  0.00  0.16  0.00
  WS02006112WS02006115    1.00   0.02  0.01  0.00  0.96  0.00  0.00  0.00  0.00  0.00
  WS02006111WS02006112    1.00   0.02  0.00  0.00  0.97  0.00  0.00  0.00  0.93  0.00
  WS02006110WS02006113    1.00   0.00  0.01  0.00  0.98  0.00  0.00  0.00  0.00  0.00
  WS02006109WS02006110    1.00   0.00  0.00  0.00  1.00  0.00  0.00  0.00  0.00  0.00
  WS02004411WS02004412    1.00   0.04  0.00  0.00  0.96  0.00  0.00  0.00  0.00  0.00
  WS02004401WS02004402    1.00   0.03  0.00  0.00  0.97  0.00  0.00  0.00  0.00  0.00
  WS02004413WS02003067    1.00   0.04  0.01  0.00  0.00  0.00  0.95  0.00  0.00  0.00
  WS02004412WS02004413    1.00   0.04  0.00  0.00  0.96  0.00  0.00  0.00  0.01  0.00
  WS02004410WS02004411    1.00   0.04  0.00  0.00  0.96  0.00  0.00  0.00  0.00  0.00
  WS02004409WS02004410    1.00   0.04  0.00  0.00  0.96  0.00  0.00  0.00  0.01  0.00
  WS02004407WS02004409    1.00   0.04  0.00  0.00  0.96  0.00  0.00  0.00  0.90  0.00
  WS02004406WS02004407    1.00   0.00  0.04  0.00  0.96  0.00  0.00  0.00  0.00  0.00
  WS02004405WS02004406    1.00   0.00  0.00  0.00  1.00  0.00  0.00  0.00  0.04  0.00
  WS02004404WS02004405    1.00   0.00  0.00  0.00  1.00  0.00  0.00  0.00  0.00  0.00
  WS02004403WS02004404    1.00   0.00  0.04  0.00  0.96  0.00  0.00  0.00  0.00  0.00
  WS02004402WS02004403    1.00   0.03  0.00  0.00  0.97  0.00  0.00  0.00  0.00  0.00
  WS02004139WS02001211    1.00   0.00  0.00  0.00  1.00  0.00  0.00  0.00  0.00  0.00
  WS02004138WS02004139    1.00   0.00  0.00  0.00  1.00  0.00  0.00  0.00  1.00  0.00
  WS02003067WS02003066    1.00   0.05  0.00  0.00  0.95  0.00  0.00  0.00  0.00  0.00
  WS02001213WS02003059    1.00   0.00  0.00  0.00  1.00  0.00  0.00  0.00  0.00  0.00
  WS02001212WS02001213    1.00   0.00  0.00  0.00  0.75  0.00  0.25  0.00  0.00  0.00
  WS02001211WS02001212    1.00   0.00  0.00  0.00  1.00  0.00  0.00  0.00  0.00  0.00
  WS02003072WS02003073    1.00   0.00  0.00  0.00  0.00  0.00  0.00  1.00  0.00  0.00
  WS02003069WS02003072    1.00   0.00  0.00  0.00  1.00  0.00  0.00  0.00  0.30  0.00
  WS02003060WS02003069    1.00   0.00  0.00  0.00  0.99  0.01  0.00  0.00  0.14  0.00
  WS02003059WS02003060    1.00   0.00  0.00  0.00  1.00  0.00  0.00  0.00  0.02  0.00
  HS02004901HS02004770    1.00   0.05  0.00  0.00  0.95  0.00  0.00  0.00  0.03  0.00
  HS02004876HS02004881    1.00   0.00  0.00  0.00  1.00  0.00  0.00  0.00  0.00  0.00
  HS02004870HS02004876    1.00   0.00  0.00  0.00  1.00  0.00  0.00  0.00  0.95  0.00
  HS02004842HS02004848    1.00   0.00  0.05  0.00  0.95  0.00  0.00  0.00  0.72  0.00
  HS02004837HS02004842    1.00   0.00  0.00  0.00  1.00  0.00  0.00  0.00  0.11  0.00
  HS02004830HS02004837    1.00   0.00  0.00  0.00  1.00  0.00  0.00  0.00  0.99  0.00
  HS02004824HS02004830    1.00   0.00  0.00  0.00  1.00  0.00  0.00  0.00  0.00  0.00
  HS02004817HS02004824    1.00   0.00  0.00  0.00  1.00  0.00  0.00  0.00  1.00  0.00
  HS02004770HS02004777    1.00   0.00  0.05  0.00  0.95  0.00  0.00  0.00  0.08  0.00
  HS02004799HS02004480    1.00   0.00  0.01  0.00  0.94  0.00  0.06  0.00  0.00  0.00
  HS02004792HS02004799    1.00   0.00  0.00  0.00  1.00  0.00  0.00  0.00  0.98  0.00
  HS02004788HS02004792    1.00   0.00  0.00  0.00  1.00  0.00  0.00  0.00  0.98  0.00
  HS02004785HS02004788    1.00   0.00  0.00  0.00  1.00  0.00  0.00  0.00  0.00  0.00
  HS02004777HS02004785    1.00   0.00  0.00  0.00  1.00  0.00  0.00  0.00  0.22  0.00
  HS02004480HS02004478    1.00   0.05  0.00  0.00  0.78  0.00  0.00  0.16  0.00  0.00
  HS02004479HS02004480    1.00   0.01  0.00  0.00  0.99  0.00  0.00  0.00  0.16  0.00
  HS02004862HS02004870    1.00   0.00  0.00  0.00  1.00  0.00  0.00  0.00  0.06  0.00
  HS02004848HS02004852    1.00   0.05  0.00  0.00  0.95  0.00  0.00  0.00  0.69  0.00
  HS02004856HS02004862    1.00   0.00  0.08  0.00  0.92  0.00  0.00  0.00  0.73  0.00
  HS02004852HS02004856    1.00   0.05  0.01  0.00  0.94  0.00  0.00  0.00  0.82  0.00
  HS02004802HS02004478    1.00   0.05  0.01  0.00  0.94  0.00  0.00  0.00  0.00  0.00
  HS02004478WS02006287    1.00   0.06  0.00  0.00  0.94  0.00  0.00  0.00  0.81  0.00
  HS02004817HS02004807    1.00   0.00  0.05  0.00  0.95  0.00  0.00  0.00  0.00  0.00
  HS02004807HS02004802    1.00   0.05  0.00  0.00  0.95  0.00  0.00  0.00  0.01  0.00
  YS02001759YS02001757    1.00   0.00  0.00  0.00  1.00  0.00  0.00  0.00  0.17  0.00
  YS02001762YS02001759    1.00   0.00  0.00  0.00  1.00  0.00  0.00  0.00  0.05  0.00
  YS02001765YS02001762    1.00   0.00  0.00  0.00  1.00  0.00  0.00  0.00  0.23  0.00
  YS02001770YS02001767    1.00   0.00  0.00  0.00  1.00  0.00  0.00  0.00  0.00  0.00
  YS02001774YS02001770    1.00   0.00  0.06  0.00  0.94  0.00  0.00  0.00  0.07  0.00
  YS02001779YS02001774    1.00   0.00  0.00  0.00  1.00  0.00  0.00  0.00  0.28  0.00
  YS02001649YS02001757    1.00   0.00  0.00  0.00  1.00  0.00  0.00  0.00  0.19  0.00
  YS02001767YS02001765    1.00   0.00  0.00  0.00  1.00  0.00  0.00  0.00  0.01  0.00
  YS02006561YS02001783    1.00   0.08  0.00  0.00  0.00  0.92  0.00  0.00  0.72  0.00
  YS02001783YS02001784    1.00   0.00  0.08  0.00  0.92  0.00  0.00  0.00  0.20  0.00
  YS02001784YS02001785    1.00   0.00  0.00  0.00  1.00  0.00  0.00  0.00  0.27  0.00
  YS02001788YS02001790    1.00   0.00  0.00  0.00  0.08  0.92  0.00  0.00  0.99  0.00
  YS02001790YS02001791    1.00   0.00  0.00  0.00  0.00  1.00  0.00  0.00  0.27  0.00
  YS02001791YS02001793    1.00   0.00  0.00  0.00  0.00  1.00  0.00  0.00  0.00  0.00
  YS02001910YS02001907    1.00   0.00  0.00  0.00  0.99  0.00  0.00  0.01  0.13  0.00
  YS02001786YS02001788    1.00   0.00  0.00  0.00  0.19  0.81  0.00  0.00  0.00  0.00
  YS02001915YS02001910    1.00   0.00  0.00  0.00  1.00  0.00  0.00  0.00  0.25  0.00
  YS02001918YS02001915    1.00   0.00  0.00  0.00  1.00  0.00  0.00  0.00  0.80  0.00
  YS02001923YS02001920    1.00   0.00  0.00  0.00  1.00  0.00  0.00  0.00  1.00  0.00
  YS02001926YS02001923    1.00   0.00  0.04  0.00  0.00  0.00  0.96  0.00  0.00  0.00
  YS02001929YS02001926    1.00   0.00  0.05  0.00  0.95  0.00  0.00  0.00  0.86  0.00
  YS02001920YS02001918    1.00   0.00  0.00  0.00  1.00  0.00  0.00  0.00  0.00  0.00
  YS02001629YS02163301    1.00   0.07  0.00  0.00  0.92  0.00  0.00  0.00  0.00  0.00
  YS02001619YS02001622    1.00   0.05  0.00  0.00  0.95  0.00  0.00  0.00  0.00  0.00
  YS02001622YS02001625    1.00   0.05  0.00  0.00  0.95  0.00  0.00  0.00  0.15  0.00
  YS02001625YS02001629    1.00   0.05  0.03  0.00  0.89  0.00  0.02  0.00  0.00  0.00
  YS02163301YS02001633    1.00   0.00  0.07  0.00  0.93  0.00  0.00  0.00  0.00  0.00
  YS02163601YS02164001    1.00   0.00  0.04  0.00  0.96  0.00  0.00  0.00  0.00  0.00
  YS02164001YS02001641    1.00   0.00  0.04  0.00  0.96  0.00  0.00  0.00  0.07  0.00
  YS02001641YS02001644    1.00   0.00  0.00  0.00  1.00  0.00  0.00  0.00  0.00  0.00
  YS02001647YS02001649    1.00   0.00  0.08  0.00  0.92  0.00  0.00  0.00  0.01  0.00
  YS02006553YS02006556    1.00   0.00  0.00  0.00  1.00  0.00  0.00  0.00  0.03  0.00
  YS02006556YS02006558    1.00   0.00  0.00  0.00  1.00  0.00  0.00  0.00  0.00  0.00
  YSB6556YSB1171          1.00   0.01  0.04  0.00  0.95  0.00  0.00  0.00  0.00  0.00
  YS02001907YS02006553    1.00   0.00  0.00  0.00  1.00  0.00  0.00  0.00  0.00  0.00
  YS02006558YS02006561    1.00   0.08  0.00  0.00  0.00  0.92  0.00  0.00  0.71  0.00
  YS02001633YS02163601    1.00   0.00  0.00  0.00  1.00  0.00  0.00  0.00  0.20  0.00
  YS02001644YS02001647    1.00   0.00  0.08  0.00  0.92  0.00  0.00  0.00  0.00  0.00
  YS02001745YS02001748    1.00   0.00  0.00  0.00  0.00  0.00  0.00  1.00  0.00  0.00
  YS02001748YS02001751    1.00   0.00  0.00  0.00  0.97  0.03  0.00  0.00  0.91  0.00
  YS02001751YS02001754    1.00   0.00  0.00  0.00  0.91  0.00  0.00  0.09  0.03  0.00
  YS02001754YS02001757    1.00   0.00  0.00  0.00  1.00  0.00  0.00  0.00  0.28  0.00
  YS02001882YS02001884    1.00   0.07  0.00  0.00  0.93  0.00  0.00  0.00  0.00  0.00
  YS02001884YS02001887    1.00   0.02  0.03  0.00  0.95  0.00  0.00  0.00  0.00  0.00
  YS02001890YS02001895    1.00   0.00  0.07  0.00  0.93  0.00  0.00  0.00  0.00  0.00
  YS02001895YS02001898    1.00   0.07  0.00  0.00  0.92  0.00  0.01  0.00  0.00  0.00
  YS02001898YS02001901    1.00   0.07  0.01  0.00  0.92  0.00  0.00  0.00  0.02  0.00
  YS02001901YS02001904    1.00   0.07  0.00  0.00  0.93  0.00  0.00  0.00  0.00  0.00
  YS02001904YS02001907    1.00   0.00  0.07  0.00  0.93  0.00  0.00  0.00  0.00  0.00
  YS02001887YS02001890    1.00   0.00  0.00  0.00  0.99  0.00  0.01  0.00  0.00  0.00
  YS02001652YS02001649    1.00   0.00  0.00  0.00  1.00  0.00  0.00  0.00  0.27  0.00
  YS02001655YS02001652    1.00   0.00  0.00  0.00  0.91  0.00  0.00  0.09  0.03  0.00
  YS02001658YS02001655    1.00   0.00  0.06  0.00  0.90  0.03  0.00  0.00  0.80  0.00
  YS02001661YS02001658    1.00   0.06  0.00  0.00  0.00  0.94  0.00  0.00  0.73  0.00
  YS02001664YS02001661    1.00   0.05  0.00  0.00  0.95  0.00  0.00  0.00  0.86  0.00
  YSB1154YSB6556          1.00   0.05  0.00  0.00  0.95  0.00  0.00  0.00  0.02  0.00
  YSB1174YSB1171          1.00   0.01  0.03  0.00  0.96  0.00  0.00  0.00  0.00  0.00
  YSB1171HS02004479       1.00   0.01  0.00  0.00  0.99  0.00  0.00  0.00  0.13  0.00
  HS02004881HS02006253    1.00   0.01  0.00  0.00  0.58  0.03  0.00  0.38  0.40  0.00
  YS02001793JiankangQianchi    1.00   0.00  0.00  0.00  0.12  0.88  0.00  0.00  0.18  0.00
  YS02001757CaochengTiaoxuchi    1.00   0.00  0.10  0.00  0.90  0.00  0.00  0.00  0.00  0.00
  WSF200WS02003060        1.00   0.00  0.03  0.00  0.81  0.16  0.00  0.00  0.61  0.00
  1                       1.00   0.00  0.00  0.00  0.00  1.00  0.00  0.00  0.41  0.00
  2                       1.00   0.91  0.00  0.00  0.00  0.09  0.00  0.00  0.02  0.00
  3                       1.00   0.62  0.00  0.00  0.00  0.38  0.00  0.00  0.16  0.00
  4                       1.00   1.00  0.00  0.00  0.00  0.00  0.00  0.00  0.00  0.00
  
  
  *************************
  Conduit Surcharge Summary
  *************************
  
  ----------------------------------------------------------------------------
                                                           Hours        Hours 
                         --------- Hours Full --------   Above Full   Capacity
  Conduit                Both Ends  Upstream  Dnstream   Normal Flow   Limited
  ----------------------------------------------------------------------------
  WS02006229WS02006228        0.17      0.20      0.17      1.84         0.17
  WS02006256WS02006235        5.47      5.47      7.13      2.24         0.01
  WS02006252WS02006251        0.10      0.10      0.59      0.38         0.01
  WS02006251WS02006249        0.01      0.01      0.01      0.09         0.01
  WS02006249WS02006248        0.01      0.01      0.01      2.19         0.01
  WS02006247WS02006245        0.01      0.01      0.01      3.54         0.01
  WS02006243WS02006242        0.01      0.01      0.08      0.01         0.01
  WS02006242WS02006240        0.01      0.01      0.14      0.48         0.01
  WS02006240WS02006239        0.01      0.01      0.01      0.01         0.01
  WS02006239WS02006238        0.12      0.12      0.14      0.01         0.01
  WS02006238WS02006235        0.11      0.11      0.24      0.01         0.01
  WS02006235WS02006234        0.01      0.01      0.08      5.45         0.01
  WS02006234WS02006232        0.01      0.01      0.27      0.01         0.01
  WS02006232WS02006231        0.01      0.01      0.27      0.01         0.01
  WS02006231WS02006230        0.01      0.01      0.01      5.51         0.01
  WS02006230WS02006229        0.66      1.44      0.66      5.74         0.66
  WS02006228WS02006109        0.19      0.41      0.19      3.43         0.19
  WS02006111WS02006112        0.01      0.01      2.08      0.01         0.01
  WS02006110WS02006113        0.01      0.01      0.31      0.01         0.01
  WS02006109WS02006110        0.01      0.01      0.41      0.01         0.01
  WS02004404WS02004405        0.01      0.01      0.01      5.37         0.01
  WS02003072WS02003073        0.01      0.01      0.01      4.04         0.01
  YS02001793JiankangQianchi        0.01      0.01      0.52      0.01         0.01
  
  
  ***************
  Pumping Summary
  ***************
  
  ---------------------------------------------------------------------------------------------------------
                                                  Min       Avg       Max     Total     Power    % Time Off
                        Percent   Number of      Flow      Flow      Flow    Volume     Usage    Pump Curve
  Pump                 Utilized   Start-Ups       LPS       LPS       LPS  10^6 ltr     Kw-hr    Low   High
  ---------------------------------------------------------------------------------------------------------
  CC-Pump-1               51.82           4      0.00    103.29    200.00     1.428      6.20    0.0  100.0
  CC-Pump-2               58.22           5      0.00    102.49    200.00     1.566      6.78    0.0  100.0
  JK-Pump-1               74.45           5      0.00     66.25    299.91     1.085     20.16    0.0    0.0
  JK-Pump-2               68.10           9      0.00     75.65    300.00     1.111     21.35    0.0    0.0
  XR-Pump-1               91.48           4      0.00     73.34     95.00     1.824     20.14    0.0    0.0
  XR-Pump-2               80.85           7      0.00     67.97     95.00     1.624     18.22    0.0    0.0
  XR-Pump-3               76.56           8      0.00     65.57     95.00     1.396     15.18    0.0    0.0
  XR-Pump-4               82.95           9      0.00     65.87     95.00     1.510     16.45    0.0    0.0
  

  Analysis begun on:  Fri Dec 24 14:18:30 2021
  Analysis ended on:  Fri Dec 24 14:18:33 2021
  Total elapsed time: 00:00:03