
  EPA STORM WATER MANAGEMENT MODEL - VERSION 5.1 (Build 5.3.0.dev0)
  --------------------------------------------------------------

  WARNING 04: minimum elevation drop used for Conduit WS02004404WS02004405
  WARNING 03: negative offset ignored for Link YS02001904YS02001907
  
  *********************************************************
  NOTE: The summary statistics displayed in this report are
  based on results found at every computational time step,  
  not just on results from each reporting time step.
  *********************************************************
  
  ****************
  Analysis Options
  ****************
  Flow Units ............... LPS
  Process Models:
    Rainfall/Runoff ........ YES
    RDII ................... NO
    Snowmelt ............... NO
    Groundwater ............ NO
    Flow Routing ........... YES
    Ponding Allowed ........ NO
    Water Quality .......... NO
  Infiltration Method ...... HORTON
  Flow Routing Method ...... DYNWAVE
  Surcharge Method ......... EXTRAN
  Starting Date ............ 08/28/2015 08:00:00
  Ending Date .............. 08/28/2015 15:50:00
  Antecedent Dry Days ...... 8.0
  Report Time Step ......... 00:01:00
  Wet Time Step ............ 00:01:00
  Dry Time Step ............ 00:01:00
  Routing Time Step ........ 5.00 sec
  Variable Time Step ....... YES
  Maximum Trials ........... 8
  Number of Threads ........ 4
  Head Tolerance ........... 0.001500 m
  
  
  **************************        Volume         Depth
  Runoff Quantity Continuity     hectare-m            mm
  **************************     ---------       -------
  Total Precipitation ......         1.069         2.341
  Evaporation Loss .........         0.000         0.000
  Infiltration Loss ........         0.254         0.556
  Surface Runoff ...........         0.176         0.384
  Final Storage ............         0.640         1.401
  Continuity Error (%) .....        -0.010
  
  
  **************************        Volume        Volume
  Flow Routing Continuity        hectare-m      10^6 ltr
  **************************     ---------     ---------
  Dry Weather Inflow .......         0.616         6.165
  Wet Weather Inflow .......         0.175         1.754
  Groundwater Inflow .......         0.000         0.000
  RDII Inflow ..............         0.000         0.000
  External Inflow ..........         0.102         1.024
  External Outflow .........         0.955         9.551
  Flooding Loss ............         0.000         0.000
  Evaporation Loss .........         0.000         0.000
  Exfiltration Loss ........         0.000         0.000
  Initial Stored Volume ....         0.076         0.761
  Final Stored Volume ......         0.127         1.274
  Continuity Error (%) .....       -11.576
  
  
  *************************
  Highest Continuity Errors
  *************************
  Node HS02004842 (60.57%)
  Node JK-storage (-52.43%)
  Node YS02001884 (49.02%)
  Node YS02001774 (31.74%)
  Node HS02004901 (25.25%)
  
  
  ***************************
  Time-Step Critical Elements
  ***************************
  Link WS02006252WS02006251 (76.63%)
  Link WS02006280WS02006229 (7.75%)
  Link 3 (5.93%)
  Link YS02001793JiankangQianchi (1.73%)
  Link WS02006238WS02006235 (1.03%)
  
  
  ********************************
  Highest Flow Instability Indexes
  ********************************
  Link WS02006113WS02006111 (40)
  Link WS02006111WS02006112 (5)
  Link YS02001754YS02001757 (4)
  Link YS02001767YS02001765 (3)
  Link YS02001751YS02001754 (2)
  
  
  *************************
  Routing Time Step Summary
  *************************
  Minimum Time Step           :     0.50 sec
  Average Time Step           :     1.60 sec
  Maximum Time Step           :     5.00 sec
  Percent in Steady State     :    -0.00
  Average Iterations per Step :     2.01
  Percent Not Converging      :     0.00
  
  
  ***************************
  Subcatchment Runoff Summary
  ***************************
  
  ------------------------------------------------------------------------------------------------------------------------------
                            Total      Total      Total      Total     Imperv       Perv      Total       Total     Peak  Runoff
                           Precip      Runon       Evap      Infil     Runoff     Runoff     Runoff      Runoff   Runoff   Coeff
  Subcatchment                 mm         mm         mm         mm         mm         mm         mm    10^6 ltr      LPS
  ------------------------------------------------------------------------------------------------------------------------------
  sub0                       2.34       0.00       0.00       0.16       0.91       0.00       0.91        0.00     0.15   0.389
  sub1                       2.34       0.00       0.00       0.26       0.84       0.00       0.84        0.01     0.84   0.357
  sub2                       2.34       0.00       0.00       0.87       0.58       0.00       0.58        0.01     0.77   0.247
  sub3                       2.34       0.00       0.00       0.87       0.56       0.00       0.56        0.01     1.66   0.238
  sub4                       2.34       0.00       0.00       0.26       0.75       0.00       0.75        0.02     1.93   0.320
  sub5                       2.34       0.00       0.00       0.16       0.87       0.00       0.87        0.01     1.50   0.373
  sub7                       2.34       0.00       0.00       0.21       0.88       0.00       0.88        0.00     0.50   0.375
  sub8                       2.34       0.00       0.00       0.21       0.87       0.00       0.87        0.01     0.90   0.372
  sub9                       2.34       0.00       0.00       0.21       0.87       0.00       0.87        0.00     0.67   0.371
  sub10                      2.34       0.00       0.00       0.19       0.87       0.00       0.87        0.01     1.48   0.371
  sub11                      2.34       0.00       0.00       0.19       0.88       0.00       0.88        0.01     1.68   0.377
  sub12                      2.34       0.00       0.00       0.30       0.85       0.00       0.85        0.01     1.37   0.362
  sub14                      2.34       0.00       0.00       0.21       0.87       0.00       0.87        0.01     1.32   0.370
  sub15                      2.34       0.00       0.00       0.70       0.66       0.00       0.66        0.01     1.80   0.284
  sub16                      2.34       0.00       0.00       0.77       0.65       0.00       0.65        0.01     1.20   0.278
  sub17                      2.34       0.00       0.00       0.75       0.66       0.00       0.66        0.01     0.98   0.281
  sub22                      2.34       0.00       0.00       1.01       0.55       0.00       0.55        0.03     5.72   0.234
  sub23                      2.34       0.00       0.00       0.87       0.61       0.00       0.61        0.03     4.84   0.259
  sub60                      2.34       0.00       0.00       0.28       0.40       0.00       0.40        0.12     9.23   0.172
  sub61                      2.34       0.00       0.00       0.40       0.46       0.00       0.46        0.14    12.17   0.199
  sub62                      2.34       0.00       0.00       0.19       0.49       0.00       0.49        0.15    12.28   0.208
  sub63                      2.34       0.00       0.00       0.68       0.43       0.00       0.43        0.13    11.53   0.182
  sub64                      2.34       0.00       0.00       0.35       0.38       0.00       0.38        0.12     8.74   0.163
  sub65                      2.34       0.00       0.00       0.30       0.38       0.00       0.38        0.12     8.83   0.164
  sub66                      2.34       0.00       0.00       0.68       0.34       0.00       0.34        0.10     8.14   0.146
  sub67                      2.34       0.00       0.00       0.19       0.58       0.00       0.58        0.18    16.33   0.246
  sub68                      2.34       0.00       0.00       0.33       0.50       0.00       0.50        0.16    13.59   0.216
  sub69                      2.34       0.00       0.00       0.35       0.59       0.00       0.59        0.14    13.87   0.253
  sub70                      2.34       0.60       0.00       1.00       0.56       0.00       0.56        0.13     8.40   0.191
  sub71                      2.34       0.00       0.00       0.19       0.45       0.00       0.45        0.11     8.42   0.193
  sub72                      2.34       0.00       0.00       0.16       0.28       0.00       0.28        0.06     3.62   0.117
  sub73                      2.34       0.55       0.00       0.98       0.50       0.00       0.50        0.12     7.44   0.173
  sub74                      2.34       0.00       0.00       1.76       0.18       0.00       0.18        0.07     7.75   0.078
  
  
  ******************
  Node Depth Summary
  ******************
  
  ---------------------------------------------------------------------------------
                                 Average  Maximum  Maximum  Time of Max    Reported
                                   Depth    Depth      HGL   Occurrence   Max Depth
  Node                 Type       Meters   Meters   Meters  days hr:min      Meters
  ---------------------------------------------------------------------------------
  WS02001211           JUNCTION     0.63     0.76     5.60     0  06:50        0.76
  WS02001212           JUNCTION     0.36     0.46     5.52     0  06:50        0.46
  WS02001213           JUNCTION     0.55     0.68     5.44     0  06:50        0.68
  WS02003069           JUNCTION     0.33     0.42     5.00     0  05:44        0.42
  WS02003072           JUNCTION     0.40     0.49     4.86     0  05:45        0.49
  WS02003073           JUNCTION     0.23     0.29     4.36     0  05:46        0.29
  WS02003060           JUNCTION     0.30     0.37     5.31     0  05:43        0.37
  WS02003066           JUNCTION     0.15     0.21     5.76     0  04:16        0.21
  WS02003059           JUNCTION     0.60     0.72     5.41     0  06:51        0.72
  WS02003067           JUNCTION     0.41     0.52     5.84     0  04:16        0.52
  WS02004401           JUNCTION     0.47     0.59     6.59     0  04:12        0.58
  WS02004402           JUNCTION     0.50     0.62     6.58     0  04:12        0.62
  WS02004403           JUNCTION     0.53     0.65     6.58     0  04:13        0.65
  WS02004404           JUNCTION     0.60     0.73     6.58     0  04:13        0.73
  WS02004406           JUNCTION     0.62     0.74     6.57     0  04:13        0.74
  WS02004409           JUNCTION     0.27     0.40     6.17     0  04:14        0.40
  WS02004410           JUNCTION     0.30     0.42     6.14     0  04:15        0.42
  WS02004411           JUNCTION     0.33     0.45     6.13     0  04:15        0.45
  WS02004412           JUNCTION     0.35     0.47     6.11     0  04:16        0.47
  WS02004413           JUNCTION     0.51     0.64     6.11     0  04:16        0.64
  WS02004405           JUNCTION     0.60     0.72     6.57     0  04:13        0.72
  WS02006109           JUNCTION     0.51     0.64     7.26     0  04:08        0.64
  WS02006110           JUNCTION     0.53     0.66     7.24     0  04:08        0.66
  WS02006111           JUNCTION     0.13     0.18     6.89     0  04:09        0.18
  WS02006112           JUNCTION     0.60     0.74     6.62     0  04:11        0.74
  WS02006113           JUNCTION     0.19     0.27     7.17     0  04:09        0.27
  WS02006115           JUNCTION     0.35     0.46     6.60     0  04:11        0.46
  WS02006116           JUNCTION     0.43     0.55     6.59     0  04:12        0.55
  WS02006230           JUNCTION     0.41     0.56     7.30     0  04:08        0.56
  WS02006231           JUNCTION     0.27     0.38     7.51     0  04:06        0.38
  WS02006232           JUNCTION     0.38     0.51     7.55     0  04:06        0.51
  WS02006234           JUNCTION     0.27     0.41     7.57     0  04:05        0.41
  WS02006235           JUNCTION     0.30     0.44     7.60     0  04:05        0.44
  WS02006238           JUNCTION     0.32     0.46     7.61     0  04:05        0.46
  WS02006240           JUNCTION     0.20     0.34     7.63     0  04:05        0.34
  WS02006242           JUNCTION     0.25     0.40     7.67     0  04:04        0.40
  WS02006243           JUNCTION     0.14     0.27     7.69     0  04:03        0.27
  WS02006245           JUNCTION     0.16     0.27     7.76     0  04:02        0.27
  WS02006247           JUNCTION     0.19     0.30     7.80     0  04:00        0.30
  WS02006248           JUNCTION     0.15     0.25     7.84     0  03:59        0.25
  WS02006249           JUNCTION     0.19     0.30     7.90     0  03:57        0.30
  WS02006239           JUNCTION     0.26     0.41     7.62     0  04:05        0.41
  WS02006251           JUNCTION     0.17     0.28     7.95     0  03:56        0.28
  WS02006252           JUNCTION     0.17     0.27     8.51     0  03:52        0.27
  WS02006253           JUNCTION     0.19     0.31     7.96     0  03:56        0.31
  WS02006256           JUNCTION     0.62     1.15     8.09     0  00:00        1.10
  WS02004138           JUNCTION     0.15     0.19     7.44     0  01:40        0.19
  WS02004407           JUNCTION     0.13     0.18     6.50     0  04:13        0.18
  WS02006228           JUNCTION     0.49     0.62     7.27     0  04:08        0.62
  WS02006229           JUNCTION     0.45     0.59     7.28     0  04:08        0.59
  WS02006280           JUNCTION     0.04     0.06     8.33     0  03:02        0.06
  WS02006284           JUNCTION     0.31     0.36     8.76     0  03:02        0.36
  WS02006287           JUNCTION     0.05     0.09     9.04     0  03:01        0.09
  WSF200               JUNCTION     0.12     0.17     5.41     0  04:16        0.17
  HS02004901           JUNCTION     0.08     0.12     9.95     0  03:01        0.12
  HS02004881           JUNCTION     0.00     0.01     9.04     0  02:57        0.01
  HS02004876           JUNCTION     0.02     0.04     9.07     0  02:58        0.04
  HS02004870           JUNCTION     0.00     0.01     9.30     0  02:55        0.01
  HS02004862           JUNCTION     0.01     0.01     9.40     0  02:59        0.01
  HS02004856           JUNCTION     0.06     0.08     9.50     0  02:56        0.08
  HS02004852           JUNCTION     0.00     0.01     9.52     0  03:01        0.01
  HS02004848           JUNCTION     0.00     0.01     9.61     0  02:58        0.01
  HS02004842           JUNCTION     0.31     0.34     9.61     0  02:54        0.34
  HS02004837           JUNCTION     0.02     0.03     9.61     0  02:55        0.03
  HS02004830           JUNCTION     0.03     0.04     9.51     0  02:55        0.04
  HS02004824           JUNCTION     0.01     0.02     9.42     0  02:59        0.02
  HS02004817           JUNCTION     0.39     0.44     9.29     0  03:01        0.44
  HS02004807           JUNCTION     0.09     0.12     9.29     0  03:01        0.12
  HS02004802           JUNCTION     0.13     0.15     9.28     0  03:01        0.15
  HS02004799           JUNCTION     0.07     0.11     9.32     0  02:59        0.11
  HS02004792           JUNCTION     0.01     0.03     9.55     0  02:58        0.03
  HS02004788           JUNCTION     0.01     0.02     9.92     0  03:01        0.02
  HS02004785           JUNCTION     0.02     0.04     9.95     0  03:02        0.04
  HS02004777           JUNCTION     0.11     0.15     9.95     0  03:01        0.15
  HS02004770           JUNCTION     0.08     0.12     9.95     0  03:00        0.12
  HS02004480           JUNCTION     0.04     0.08     9.32     0  03:00        0.08
  HS02004479           JUNCTION     0.07     0.11     9.32     0  03:00        0.11
  HS02004478           JUNCTION     0.03     0.05     9.28     0  03:01        0.05
  YS02001745           JUNCTION     0.03     0.04     7.56     0  03:01        0.04
  YS02001748           JUNCTION     0.03     0.05     7.13     0  03:01        0.05
  YS02001751           JUNCTION     0.11     0.14     7.02     0  03:36        0.14
  YS02001754           JUNCTION     0.33     0.42     7.03     0  06:34        0.42
  YS02001762           JUNCTION     0.51     0.62     7.02     0  03:37        0.62
  YS02001765           JUNCTION     0.47     0.57     7.02     0  03:37        0.57
  YS02001767           JUNCTION     0.44     0.53     7.02     0  03:38        0.53
  YS02001770           JUNCTION     0.43     0.53     7.02     0  03:39        0.53
  YS02001774           JUNCTION     0.49     0.60     7.02     0  03:38        0.60
  YS02001779           JUNCTION     0.26     0.34     7.02     0  03:38        0.34
  YS02001882           JUNCTION     0.13     0.19     6.90     0  03:08        0.19
  YS02001884           JUNCTION     0.22     0.29     6.90     0  03:08        0.29
  YS02001759           JUNCTION     0.55     0.66     7.02     0  03:38        0.66
  YS02001887           JUNCTION     0.30     0.37     6.90     0  03:07        0.37
  YS02001890           JUNCTION     0.33     0.40     6.90     0  03:08        0.40
  YS02001898           JUNCTION     0.11     0.16     6.89     0  03:09        0.16
  YS02001901           JUNCTION     0.22     0.29     6.89     0  03:10        0.29
  YS02001904           JUNCTION     0.20     0.26     6.89     0  03:09        0.26
  YS02001907           JUNCTION     0.52     0.60     6.89     0  03:09        0.60
  YS02001910           JUNCTION     0.32     0.39     6.89     0  03:10        0.39
  YS02001915           JUNCTION     0.13     0.18     6.89     0  03:08        0.18
  YS02001918           JUNCTION     0.04     0.04     7.11     0  03:09        0.04
  YS02001619           JUNCTION     0.07     0.10     7.03     0  03:35        0.10
  YS02001629           JUNCTION     0.38     0.47     7.02     0  03:34        0.47
  YS02001641           JUNCTION     0.48     0.58     7.02     0  03:39        0.58
  YS02001644           JUNCTION     0.49     0.59     7.02     0  03:39        0.59
  YS02001652           JUNCTION     0.34     0.43     7.02     0  03:38        0.42
  YS02001655           JUNCTION     0.13     0.17     7.02     0  03:38        0.17
  YS02001920           JUNCTION     0.11     0.12     7.13     0  03:08        0.12
  YS02001923           JUNCTION     0.02     0.03     7.29     0  03:06        0.03
  YS02001926           JUNCTION     0.07     0.08     7.53     0  03:05        0.08
  YS02001929           JUNCTION     0.02     0.03     7.72     0  03:01        0.03
  YS02001658           JUNCTION     0.03     0.05     7.19     0  03:01        0.05
  YS02001661           JUNCTION     0.09     0.12     7.52     0  03:01        0.12
  YS02001664           JUNCTION     0.03     0.04     7.97     0  03:01        0.04
  YS02001622           JUNCTION     0.09     0.12     7.02     0  03:35        0.12
  YS02001633           JUNCTION     0.47     0.57     7.02     0  03:34        0.57
  YS02001649           JUNCTION     0.52     0.63     7.02     0  03:38        0.63
  YS02001757           JUNCTION     0.64     0.76     7.02     0  03:38        0.76
  YS02001895           JUNCTION     0.11     0.16     6.90     0  03:08        0.16
  YS02001625           JUNCTION     0.35     0.42     7.02     0  03:35        0.42
  YS02163301           JUNCTION     0.41     0.50     7.02     0  03:34        0.50
  YS02163601           JUNCTION     0.52     0.62     7.02     0  03:38        0.62
  YS02164001           JUNCTION     0.46     0.56     7.02     0  03:38        0.56
  YS02001647           JUNCTION     0.33     0.41     7.02     0  03:38        0.41
  YSB1154              JUNCTION     0.20     0.26     9.32     0  03:00        0.26
  YSB6556              JUNCTION     0.10     0.15     9.32     0  03:00        0.15
  YSB1174              JUNCTION     0.16     0.21     9.32     0  03:00        0.21
  YSB1171              JUNCTION     0.35     0.41     9.32     0  03:00        0.41
  YS02006553           JUNCTION     0.52     0.61     6.89     0  03:09        0.61
  YS02006561           JUNCTION     0.06     0.08     6.74     0  03:10        0.08
  YS02006556           JUNCTION     0.50     0.58     6.89     0  03:10        0.58
  YS02006558           JUNCTION     0.54     0.63     6.89     0  03:10        0.63
  YS02001783           JUNCTION     0.09     0.13     6.27     0  03:10        0.13
  YS02001784           JUNCTION     0.12     0.17     6.24     0  03:10        0.17
  YS02001786           JUNCTION     0.11     0.15     6.18     0  03:11        0.15
  YS02001788           JUNCTION     0.07     0.10     6.08     0  03:11        0.10
  YS02001790           JUNCTION     0.09     0.12     5.77     0  03:13        0.12
  YS02001791           JUNCTION     0.06     0.08     5.55     0  03:10        0.08
  YS02001793           JUNCTION     0.04     0.06     4.89     0  03:12        0.06
  WS02004139           JUNCTION     0.58     0.71     5.62     0  06:50        0.71
  WSC                  OUTFALL      0.23     0.29     0.96     0  05:46        0.29
  3                    OUTFALL      0.01     0.13     6.13     0  00:00        0.10
  4                    OUTFALL      0.00     0.00     7.00     0  00:00        0.00
  5                    OUTFALL      0.00     0.00     5.00     0  00:00        0.00
  JK-storage           STORAGE      0.13     3.00     3.80     0  00:00        2.70
  CC-storage           STORAGE      0.00     0.00     7.00     0  04:52        0.00
  XR-storage           STORAGE      0.90     5.05     3.05     0  00:10        5.05
  
  
  *******************
  Node Inflow Summary
  *******************
  
  -------------------------------------------------------------------------------------------------
                                  Maximum  Maximum                  Lateral       Total        Flow
                                  Lateral    Total  Time of Max      Inflow      Inflow     Balance
                                   Inflow   Inflow   Occurrence      Volume      Volume       Error
  Node                 Type           LPS      LPS  days hr:min    10^6 ltr    10^6 ltr     Percent
  -------------------------------------------------------------------------------------------------
  WS02001211           JUNCTION      7.35   387.65     0  01:50       0.207        6.79       0.449
  WS02001212           JUNCTION      0.00   387.61     0  01:50           0        6.76       0.257
  WS02001213           JUNCTION      0.00   387.59     0  01:50           0        6.75       0.249
  WS02003069           JUNCTION      0.32   530.96     0  05:43     0.00902        9.46       0.193
  WS02003072           JUNCTION      0.00   530.85     0  05:44           0        9.44       0.264
  WS02003073           JUNCTION      1.82   532.75     0  05:45      0.0514        9.47       0.284
  WS02003060           JUNCTION     16.53   530.22     0  05:43       0.466        9.48       0.194
  WS02003066           JUNCTION      0.00   204.80     0  04:16           0        2.31       0.112
  WS02003059           JUNCTION      0.00   387.48     0  01:50           0        6.73       0.460
  WS02003067           JUNCTION      0.00   204.82     0  04:16           0        2.32       0.267
  WS02004401           JUNCTION      0.00   209.69     0  04:11           0        2.47       0.597
  WS02004402           JUNCTION      0.00   209.15     0  04:12           0        2.46       0.587
  WS02004403           JUNCTION      0.00   208.76     0  04:12           0        2.44       0.555
  WS02004404           JUNCTION      0.16   208.63     0  04:12     0.00457        2.44       0.442
  WS02004406           JUNCTION      0.00   208.32     0  04:13           0        2.41       1.095
  WS02004409           JUNCTION      0.00   208.06     0  04:13           0        2.38       0.340
  WS02004410           JUNCTION      0.00   207.28     0  04:14           0        2.37       0.417
  WS02004411           JUNCTION      0.00   206.48     0  04:14           0        2.36       0.458
  WS02004412           JUNCTION      0.00   205.82     0  04:15           0        2.35       0.539
  WS02004413           JUNCTION      0.00   205.22     0  04:15           0        2.34       0.866
  WS02004405           JUNCTION      0.04   208.51     0  04:12     0.00107        2.43       0.663
  WS02006109           JUNCTION      1.23   212.37     0  04:07      0.0347        2.55       0.647
  WS02006110           JUNCTION      0.00   212.21     0  04:08           0        2.53       0.526
  WS02006111           JUNCTION      0.00   213.56     0  04:09           0        2.52       0.096
  WS02006112           JUNCTION      0.98   212.28     0  04:09     0.00565        2.52       0.866
  WS02006113           JUNCTION      0.00   212.15     0  04:08           0        2.52       0.189
  WS02006115           JUNCTION      0.00   211.33     0  04:10           0         2.5       0.464
  WS02006116           JUNCTION      0.00   210.38     0  04:11           0        2.49       0.468
  WS02006230           JUNCTION     10.28   195.97     0  04:06        0.29        2.19       0.369
  WS02006231           JUNCTION      0.00   185.72     0  04:05           0        1.91       0.351
  WS02006232           JUNCTION      0.00   185.80     0  04:05           0        1.92       0.561
  WS02006234           JUNCTION      0.00   185.94     0  04:04           0        1.92       0.165
  WS02006235           JUNCTION      0.00   186.03     0  04:04           0        1.96       0.320
  WS02006238           JUNCTION      0.00   123.58     0  04:10           0        1.01       0.376
  WS02006240           JUNCTION      0.00   115.13     0  04:11           0       0.991       0.444
  WS02006242           JUNCTION      0.00   114.20     0  04:01           0       0.983       0.611
  WS02006243           JUNCTION      0.00   115.07     0  03:58           0       0.977       0.350
  WS02006245           JUNCTION      0.00   115.48     0  03:57           0        0.98       0.525
  WS02006247           JUNCTION      0.00   115.83     0  03:57           0       0.982       0.243
  WS02006248           JUNCTION      0.00   116.03     0  03:57           0        0.98      -0.250
  WS02006249           JUNCTION      0.00   116.46     0  03:56           0       0.988       0.781
  WS02006239           JUNCTION      0.00   119.07     0  04:11           0           1       0.515
  WS02006251           JUNCTION      0.08   118.52     0  03:54     0.00217        1.01       0.253
  WS02006252           JUNCTION      0.00   116.97     0  03:52           0       0.957       0.010
  WS02006253           JUNCTION      0.15    12.86     0  06:35    0.000738      0.0478       2.396
  WS02006256           JUNCTION      0.00   300.00     0  00:00           0        1.09       0.220
  WS02004138           JUNCTION      0.00   380.00     0  01:40           0        6.61       0.056
  WS02004407           JUNCTION      0.00   208.13     0  04:13           0        2.38       0.164
  WS02006228           JUNCTION      0.00   211.36     0  04:06           0        2.53       0.404
  WS02006229           JUNCTION      0.00   211.54     0  04:06           0        2.53       0.304
  WS02006280           JUNCTION      0.00    32.46     0  03:02           0       0.347       0.022
  WS02006284           JUNCTION      0.10    32.46     0  03:01      0.0027       0.348       0.339
  WS02006287           JUNCTION      0.00    32.37     0  03:01           0       0.346       0.199
  WSF200               JUNCTION      0.00   204.78     0  04:16           0        2.31       0.093
  HS02004901           JUNCTION      1.20     1.21     0  02:12     0.00681     0.00694      33.777
  HS02004881           JUNCTION      0.50     4.39     0  02:56     0.00295      0.0312       0.178
  HS02004876           JUNCTION      0.84     3.92     0  02:54     0.00555      0.0287       1.747
  HS02004870           JUNCTION      0.90     3.08     0  02:54     0.00556      0.0232       0.436
  HS02004862           JUNCTION      0.97     2.19     0  02:55       0.011      0.0178       0.897
  HS02004856           JUNCTION      0.67     1.22     0  02:54     0.00417     0.00824      21.012
  HS02004852           JUNCTION      0.00     0.57     0  02:59           0      0.0041       0.937
  HS02004848           JUNCTION      1.66     1.66     0  02:58      0.0125      0.0125       0.279
  HS02004842           JUNCTION      0.00     4.47     0  00:03           0      0.0215     153.634
  HS02004837           JUNCTION      7.83     8.92     0  02:54       0.189       0.197       0.414
  HS02004830           JUNCTION      0.15     9.07     0  02:55     0.00423       0.187       0.660
  HS02004824           JUNCTION      1.98    11.04     0  02:59       0.017       0.203       0.264
  HS02004817           JUNCTION      0.60    11.64     0  02:59      0.0169        0.22       8.200
  HS02004807           JUNCTION      1.68    13.26     0  02:58      0.0102       0.213       2.017
  HS02004802           JUNCTION      0.00    13.25     0  03:00           0       0.209       1.976
  HS02004799           JUNCTION      1.32    16.43     0  02:57     0.00825       0.139       1.612
  HS02004792           JUNCTION      6.00    15.14     0  02:57      0.0425       0.131       0.323
  HS02004788           JUNCTION      3.47     9.32     0  03:00      0.0585      0.0896       0.441
  HS02004785           JUNCTION      0.15     5.92     0  02:59     0.00423      0.0334       1.413
  HS02004777           JUNCTION      0.03     5.86     0  02:54    0.000846      0.0335      18.179
  HS02004770           JUNCTION      4.84     5.96     0  02:49      0.0289      0.0341       9.988
  HS02004480           JUNCTION      0.00    19.14     0  02:59           0       0.154       0.374
  HS02004479           JUNCTION      0.00     2.92     0  01:43           0      0.0273       2.732
  HS02004478           JUNCTION      0.00    32.37     0  03:01           0       0.347       0.225
  YS02001745           JUNCTION      9.24     9.24     0  03:01       0.122       0.122       0.123
  YS02001748           JUNCTION      0.04     9.27     0  03:01     0.00127       0.123       0.066
  YS02001751           JUNCTION      0.01    15.36     0  06:24     0.00031       0.138       1.355
  YS02001754           JUNCTION      0.26    48.27     0  06:37     0.00733       0.222       4.091
  YS02001762           JUNCTION      0.00    22.76     0  07:21           0       0.162       8.852
  YS02001765           JUNCTION      0.00    30.59     0  06:51           0       0.154       9.813
  YS02001767           JUNCTION      0.54    23.09     0  07:08      0.0151       0.157      13.455
  YS02001770           JUNCTION     12.43    15.35     0  07:25       0.154       0.172      10.263
  YS02001774           JUNCTION      0.00    11.56     0  07:01           0      0.0452      46.503
  YS02001779           JUNCTION      0.01     9.39     0  07:33    0.000141      0.0173      39.857
  YS02001882           JUNCTION      0.00     0.94     0  02:10           0      0.0016     168.099
  YS02001884           JUNCTION      0.00     2.85     0  02:14           0     0.00689      96.155
  YS02001759           JUNCTION     12.21    36.62     0  06:51       0.144       0.279       5.870
  YS02001887           JUNCTION     16.78    16.78     0  03:01        0.19       0.192       2.957
  YS02001890           JUNCTION      0.00    16.18     0  03:02           0        0.18       3.534
  YS02001898           JUNCTION      0.00    15.92     0  03:05           0       0.172       0.709
  YS02001901           JUNCTION      0.00    15.93     0  03:06           0       0.173       2.352
  YS02001904           JUNCTION      0.00    15.88     0  03:10           0       0.173       2.206
  YS02001907           JUNCTION      0.00    30.44     0  03:09           0       0.404       5.075
  YS02001910           JUNCTION      0.00    14.83     0  03:05           0       0.241       3.519
  YS02001915           JUNCTION      8.44    14.82     0  03:01       0.107       0.244       1.125
  YS02001918           JUNCTION      0.00     6.54     0  03:08           0       0.137       0.351
  YS02001619           JUNCTION      8.14     8.14     0  03:01       0.105       0.105       0.381
  YS02001629           JUNCTION      0.00    10.94     0  06:40           0      0.0954       6.102
  YS02001641           JUNCTION      0.00    21.99     0  06:23           0       0.183       7.067
  YS02001644           JUNCTION      8.78    27.32     0  06:38       0.117       0.282       5.524
  YS02001652           JUNCTION      0.00    18.19     0  06:33           0        0.14       6.438
  YS02001655           JUNCTION      0.15    11.65     0  03:01     0.00434       0.134       1.980
  YS02001920           JUNCTION      2.87     6.55     0  03:06      0.0809       0.138       0.912
  YS02001923           JUNCTION      0.04     3.68     0  03:05     0.00106      0.0576       0.185
  YS02001926           JUNCTION      0.05     3.67     0  03:01     0.00147      0.0573       1.460
  YS02001929           JUNCTION      3.62     3.62     0  03:01       0.056       0.056       0.163
  YS02001658           JUNCTION      0.00    11.51     0  03:01           0       0.129       0.090
  YS02001661           JUNCTION      0.00    11.52     0  03:01           0       0.129       0.427
  YS02001664           JUNCTION     11.53    11.53     0  03:01       0.129       0.129       0.065
  YS02001622           JUNCTION      0.00     8.20     0  03:01           0       0.105       1.950
  YS02001633           JUNCTION      9.03    18.74     0  06:40       0.124       0.207       9.227
  YS02001649           JUNCTION      0.00    46.50     0  06:23           0       0.375       6.452
  YS02001757           JUNCTION      0.00    97.43     0  06:39           0       0.756       9.777
  YS02001895           JUNCTION      0.00    16.00     0  03:05           0       0.174       1.126
  YS02001625           JUNCTION      0.00     9.59     0  03:02           0       0.104      14.062
  YS02163301           JUNCTION      0.00    14.25     0  06:39           0       0.097      13.553
  YS02163601           JUNCTION      0.11    20.39     0  06:39      0.0031       0.189      10.738
  YS02164001           JUNCTION      0.00    21.59     0  06:39           0        0.18       6.579
  YS02001647           JUNCTION      0.00    31.20     0  06:24           0       0.257       4.635
  YSB1154              JUNCTION      1.50     1.61     0  01:15     0.00989      0.0114      14.496
  YSB6556              JUNCTION      0.00     2.13     0  01:22           0      0.0125      10.969
  YSB1174              JUNCTION      1.37     1.37     0  02:09     0.00741     0.00852      17.725
  YSB1171              JUNCTION      0.00     3.01     0  01:43           0      0.0267      30.937
  YS02006553           JUNCTION      0.00    30.53     0  03:11           0        0.39       3.373
  YS02006561           JUNCTION      0.00    44.10     0  03:10           0       0.531       0.055
  YS02006556           JUNCTION      0.00    30.55     0  03:11           0       0.392       2.368
  YS02006558           JUNCTION     14.47    44.11     0  03:09        0.18       0.552       0.701
  YS02001783           JUNCTION      0.00    44.09     0  03:10           0       0.531       0.129
  YS02001784           JUNCTION      1.06    45.14     0  03:10      0.0299        0.56       0.217
  YS02001786           JUNCTION      0.06    45.18     0  03:10     0.00159        0.56       0.227
  YS02001788           JUNCTION      0.07    45.25     0  03:11       0.002       0.561       0.115
  YS02001790           JUNCTION      0.15    45.40     0  03:11     0.00437       0.565       0.151
  YS02001791           JUNCTION      0.00    45.39     0  03:11           0       0.564       0.070
  YS02001793           JUNCTION      0.00    46.44     0  03:12           0       0.564       0.031
  WS02004139           JUNCTION      0.32   380.41     0  01:40     0.00905        6.62       0.479
  WSC                  OUTFALL       0.00   532.25     0  05:46           0        9.44       0.000
  3                    OUTFALL       0.00   250.55     0  00:00           0       0.108       0.000
  4                    OUTFALL       0.00     0.00     0  00:00           0           0       0.000 ltr
  5                    OUTFALL       0.00     0.00     0  00:00           0           0       0.000 ltr
  JK-storage           STORAGE       0.00    46.53     0  03:10           0       0.714     -34.395
  CC-storage           STORAGE       0.00    64.17     0  03:40           0         0.6     -37.363
  XR-storage           STORAGE     215.19   215.19     0  03:01        5.83        6.43      -5.593
  
  
  **********************
  Node Surcharge Summary
  **********************
  
  No nodes were surcharged.
  
  
  *********************
  Node Flooding Summary
  *********************
  
  No nodes were flooded.
  
  
  **********************
  Storage Volume Summary
  **********************
  
  --------------------------------------------------------------------------------------------------
                         Average     Avg  Evap Exfil       Maximum     Max    Time of Max    Maximum
                          Volume    Pcnt  Pcnt  Pcnt        Volume    Pcnt     Occurrence    Outflow
  Storage Unit           1000 m3    Full  Loss  Loss       1000 m3    Full    days hr:min        LPS
  --------------------------------------------------------------------------------------------------
  JK-storage               0.006       2     0     0         0.151      52       0  00:00     300.00
  CC-storage               0.000       0     0     0         0.006       0       0  04:52     116.97
  XR-storage               0.108      12     0     0         0.606      65       0  00:10     380.00
  
  
  ***********************
  Outfall Loading Summary
  ***********************
  
  -----------------------------------------------------------
                         Flow       Avg       Max       Total
                         Freq      Flow      Flow      Volume
  Outfall Node           Pcnt       LPS       LPS    10^6 ltr
  -----------------------------------------------------------
  WSC                   99.99    355.84    532.25       9.444
  3                      6.27    128.33    250.55       0.108
  4                      0.00      0.00      0.00       0.000
  5                      0.00      0.00      0.00       0.000
  -----------------------------------------------------------
  System                26.56    484.17    532.25       9.551
  
  
  ********************
  Link Flow Summary
  ********************
  
  -----------------------------------------------------------------------------
                                 Maximum  Time of Max   Maximum    Max/    Max/
                                  |Flow|   Occurrence   |Veloc|    Full    Full
  Link                 Type          LPS  days hr:min     m/sec    Flow   Depth
  -----------------------------------------------------------------------------
  WS02003066WSF200     CONDUIT    204.78     0  04:16      2.21    0.03    0.14
  WS02006287WS02006284 CONDUIT     32.37     0  03:01      0.81    0.02    0.10
  WS02006284WS02006280 CONDUIT     32.46     0  03:02      1.07    0.01    0.08
  WS02006280WS02006229 CONDUIT     32.46     0  03:02      1.71    0.01    0.06
  WS02006229WS02006228 CONDUIT    211.36     0  04:06      0.83    0.70    0.74
  WS02006256WS02006235 CONDUIT    166.25     0  00:01      2.58    1.76    1.00
  WS02006253WS02006251 CONDUIT     22.80     0  07:31      0.29    0.07    0.42
  WS02006252WS02006251 CONDUIT    117.28     0  03:53      2.18    0.43    0.57
  WS02006251WS02006249 CONDUIT    116.46     0  03:56      0.78    0.34    0.42
  WS02006249WS02006248 CONDUIT    116.03     0  03:57      0.87    0.64    0.38
  WS02006248WS02006247 CONDUIT    115.83     0  03:57      0.85    0.25    0.39
  WS02006247WS02006245 CONDUIT    115.48     0  03:57      0.81    0.92    0.40
  WS02006245WS02006243 CONDUIT    115.07     0  03:58      0.92    0.34    0.38
  WS02006243WS02006242 CONDUIT    114.20     0  04:01      0.73    0.24    0.45
  WS02006242WS02006240 CONDUIT    115.13     0  04:11      0.64    0.46    0.52
  WS02006240WS02006239 CONDUIT    119.07     0  04:11      0.74    0.37    0.51
  WS02006239WS02006238 CONDUIT    123.58     0  04:10      0.67    0.40    0.61
  WS02006238WS02006235 CONDUIT    126.84     0  04:10      1.25    0.28    0.64
  WS02006235WS02006234 CONDUIT    185.94     0  04:04      0.93    1.96    0.59
  WS02006234WS02006232 CONDUIT    185.80     0  04:05      1.13    0.38    0.66
  WS02006232WS02006231 CONDUIT    185.72     0  04:05      0.72    0.39    0.63
  WS02006231WS02006230 CONDUIT    185.69     0  04:06      1.06    2.82    0.46
  WS02006230WS02006229 CONDUIT    195.82     0  04:06      0.86    4.36    0.78
  WS02006228WS02006109 CONDUIT    211.14     0  04:07      0.75    0.92    0.78
  WS02006116WS02004401 CONDUIT    209.69     0  04:11      0.73    0.29    0.57
  WS02006115WS02006116 CONDUIT    210.38     0  04:11      0.79    0.27    0.48
  WS02006113WS02006111 CONDUIT    213.56     0  04:09      1.81    0.26    0.28
  WS02006112WS02006115 CONDUIT    211.33     0  04:10      0.44    0.12    0.60
  WS02006111WS02006112 CONDUIT    212.16     0  04:09      1.32    0.10    0.56
  WS02006110WS02006113 CONDUIT    212.15     0  04:08      0.70    0.19    0.58
  WS02006109WS02006110 CONDUIT    212.21     0  04:08      0.53    0.41    0.75
  WS02004411WS02004412 CONDUIT    205.82     0  04:15      0.59    0.29    0.46
  WS02004401WS02004402 CONDUIT    209.15     0  04:12      0.77    0.25    0.60
  WS02004413WS02003067 CONDUIT    204.82     0  04:16      0.65    0.09    0.42
  WS02004412WS02004413 CONDUIT    205.22     0  04:15      0.46    0.14    0.55
  WS02004410WS02004411 CONDUIT    206.48     0  04:14      0.63    0.28    0.43
  WS02004409WS02004410 CONDUIT    207.28     0  04:14      0.68    0.27    0.41
  WS02004407WS02004409 CONDUIT    208.06     0  04:13      1.10    0.07    0.29
  WS02004406WS02004407 CONDUIT    208.13     0  04:13      0.59    0.09    0.46
  WS02004405WS02004406 CONDUIT    208.32     0  04:13      0.66    0.41    0.73
  WS02004404WS02004405 CONDUIT    208.47     0  04:12      0.84    2.04    0.73
  WS02004403WS02004404 CONDUIT    208.47     0  04:12      0.74    0.15    0.69
  WS02004402WS02004403 CONDUIT    208.76     0  04:12      0.75    0.30    0.63
  WS02004139WS02001211 CONDUIT    380.30     0  01:50      0.69    0.48    0.57
  WS02004138WS02004139 CONDUIT    380.09     0  01:40      2.94    0.08    0.43
  WS02003067WS02003066 CONDUIT    204.80     0  04:16      0.70    0.07    0.30
  WS02001213WS02003059 CONDUIT    387.48     0  01:50      0.68    0.64    0.69
  WS02001212WS02001213 CONDUIT    387.59     0  01:50      1.32    0.60    0.41
  WS02001211WS02001212 CONDUIT    387.61     0  01:50      0.78    0.30    0.61
  WS02003072WS02003073 CONDUIT    530.93     0  05:45      1.41    1.15    0.37
  WS02003069WS02003072 CONDUIT    530.85     0  05:44      1.35    0.26    0.38
  WS02003060WS02003069 CONDUIT    530.64     0  05:43      1.63    0.21    0.33
  WS02003059WS02003060 CONDUIT    387.29     0  01:51      0.94    0.25    0.55
  HS02004901HS02004770 CONDUIT      1.14     0  02:57      0.02    0.00    0.17
  HS02004876HS02004881 CONDUIT      3.91     0  02:58      0.17    0.04    0.03
  HS02004870HS02004876 CONDUIT      3.08     0  02:55      0.12    0.00    0.04
  HS02004842HS02004848 CONDUIT      1.09     0  02:59      0.01    0.00    0.24
  HS02004837HS02004842 CONDUIT      4.47     0  00:03      0.41    0.00    0.26
  HS02004830HS02004837 CONDUIT      8.92     0  02:55      0.29    0.01    0.04
  HS02004824HS02004830 CONDUIT      9.07     0  02:56      0.33    0.01    0.04
  HS02004817HS02004824 CONDUIT     11.04     0  02:59      0.17    0.00    0.33
  HS02004770HS02004777 CONDUIT      5.83     0  02:54      0.05    0.01    0.19
  HS02004799HS02004480 CONDUIT     16.42     0  02:58      0.18    0.02    0.13
  HS02004792HS02004799 CONDUIT     15.14     0  02:58      0.23    0.01    0.10
  HS02004788HS02004792 CONDUIT      9.32     0  03:01      0.40    0.01    0.03
  HS02004785HS02004788 CONDUIT      5.90     0  03:01      0.18    0.04    0.05
  HS02004777HS02004785 CONDUIT      5.77     0  02:59      0.07    0.01    0.14
  HS02004480HS02004478 CONDUIT     19.12     0  03:00      0.38    0.08    0.07
  HS02004479HS02004480 CONDUIT      2.92     0  01:43      0.15    0.00    0.14
  HS02004862HS02004870 CONDUIT      2.19     0  02:57      0.19    0.00    0.02
  HS02004848HS02004852 CONDUIT      0.57     0  02:59      0.11    0.00    0.01
  HS02004856HS02004862 CONDUIT      1.22     0  02:56      0.12    0.00    0.01
  HS02004852HS02004856 CONDUIT      0.56     0  03:01      0.01    0.00    0.06
  HS02004802HS02004478 CONDUIT     13.25     0  03:01      0.13    0.01    0.15
  HS02004478WS02006287 CONDUIT     32.37     0  03:01      0.55    0.01    0.07
  HS02004817HS02004807 CONDUIT     11.66     0  03:02      0.05    0.01    0.39
  HS02004807HS02004802 CONDUIT     13.25     0  03:00      0.19    0.03    0.19
  YS02001759YS02001757 CONDUIT     31.22     0  07:28      0.12    0.02    0.71
  YS02001762YS02001759 CONDUIT     32.48     0  06:51      0.17    0.04    0.64
  YS02001765YS02001762 CONDUIT     22.76     0  07:21      0.21    0.02    0.60
  YS02001770YS02001767 CONDUIT     21.17     0  06:50      0.22    0.08    0.53
  YS02001774YS02001770 CONDUIT     11.56     0  07:01      0.12    0.01    0.55
  YS02001779YS02001774 CONDUIT      9.49     0  07:44      0.03    0.00    0.47
  YS02001649YS02001757 CONDUIT     39.56     0  03:44      0.09    0.02    0.70
  YS02001767YS02001765 CONDUIT     30.59     0  06:51      0.25    0.04    0.55
  YS02006561YS02001783 CONDUIT     44.09     0  03:10      1.08    0.02    0.14
  YS02001783YS02001784 CONDUIT     44.08     0  03:10      0.66    0.06    0.19
  YS02001784YS02001785 CONDUIT     45.12     0  03:10      0.64    0.11    0.20
  YS02001788YS02001790 CONDUIT     45.24     0  03:11      1.07    0.03    0.14
  YS02001790YS02001791 CONDUIT     45.39     0  03:11      1.21    0.05    0.13
  YS02001791YS02001793 CONDUIT     46.44     0  03:12      2.43    0.02    0.09
  YS02001910YS02001907 CONDUIT     14.71     0  03:08      0.49    0.01    0.49
  YS02001786YS02001788 CONDUIT     45.17     0  03:11      0.92    0.09    0.15
  YS02001915YS02001910 CONDUIT     14.83     0  03:05      0.44    0.01    0.28
  YS02001918YS02001915 CONDUIT      6.54     0  03:09      0.44    0.00    0.11
  YS02001923YS02001920 CONDUIT      3.68     0  03:06      0.14    0.00    0.08
  YS02001926YS02001923 CONDUIT      3.64     0  03:05      0.22    0.01    0.05
  YS02001929YS02001926 CONDUIT      3.62     0  03:01      0.21    0.00    0.06
  YS02001920YS02001918 CONDUIT      6.54     0  03:08      0.21    0.01    0.08
  YS02001629YS02163301 CONDUIT     14.25     0  06:39      0.05    0.02    0.49
  YS02001619YS02001622 CONDUIT      8.20     0  03:01      0.36    0.01    0.11
  YS02001622YS02001625 CONDUIT      9.59     0  03:02      0.14    0.01    0.27
  YS02001625YS02001629 CONDUIT     10.94     0  06:40      0.08    0.01    0.26
  YS02163301YS02001633 CONDUIT     14.38     0  06:40      0.05    0.01    0.54
  YS02163601YS02164001 CONDUIT     21.59     0  06:39      0.05    0.02    0.59
  YS02164001YS02001641 CONDUIT     21.99     0  06:23      0.06    0.03    0.57
  YS02001641YS02001644 CONDUIT     23.22     0  06:38      0.07    0.08    0.59
  YS02001647YS02001649 CONDUIT     32.46     0  06:38      0.10    0.02    0.52
  YS02006553YS02006556 CONDUIT     30.55     0  03:11      0.18    0.03    0.58
  YS02006556YS02006558 CONDUIT     30.55     0  03:12      0.07    0.02    0.60
  YSB6556YSB1171       CONDUIT      2.13     0  01:22      0.03    0.00    0.40
  YS02001907YS02006553 CONDUIT     30.53     0  03:11      0.06    0.04    0.66
  YS02006558YS02006561 CONDUIT     44.10     0  03:10      1.33    0.10    0.17
  YS02001633YS02163601 CONDUIT     20.28     0  06:39      0.06    0.02    0.58
  YS02001644YS02001647 CONDUIT     31.20     0  06:24      0.08    0.02    0.50
  YS02001745YS02001748 CONDUIT      9.23     0  03:01      0.77    0.00    0.04
  YS02001748YS02001751 CONDUIT      9.27     0  03:01      0.65    0.00    0.09
  YS02001751YS02001754 CONDUIT     20.72     0  06:17      0.62    0.01    0.25
  YS02001754YS02001757 CONDUIT     42.50     0  06:42      0.33    0.02    0.59
  YS02001882YS02001884 CONDUIT      0.94     0  02:10      0.06    0.00    0.21
  YS02001884YS02001887 CONDUIT      2.85     0  02:14      0.04    0.00    0.30
  YS02001890YS02001895 CONDUIT     16.00     0  03:05      0.09    0.01    0.28
  YS02001895YS02001898 CONDUIT     15.92     0  03:05      0.28    0.03    0.14
  YS02001898YS02001901 CONDUIT     15.93     0  03:06      0.12    0.01    0.22
  YS02001901YS02001904 CONDUIT     15.88     0  03:10      0.17    0.02    0.27
  YS02001904YS02001907 CONDUIT     15.91     0  03:10      0.05    0.01    0.43
  YS02001887YS02001890 CONDUIT     16.18     0  03:02      0.10    0.03    0.36
  YS02001652YS02001649 CONDUIT     18.43     0  06:40      0.21    0.01    0.53
  YS02001655YS02001652 CONDUIT     11.64     0  03:02      0.65    0.01    0.28
  YS02001658YS02001655 CONDUIT     11.50     0  03:01      0.73    0.00    0.11
  YS02001661YS02001658 CONDUIT     11.51     0  03:01      0.79    0.00    0.05
  YS02001664YS02001661 CONDUIT     11.52     0  03:01      0.39    0.00    0.08
  YSB1154YSB6556       CONDUIT      1.60     0  01:15      0.19    0.00    0.29
  YSB1174YSB1171       CONDUIT      1.42     0  02:12      0.02    0.00    0.41
  YSB1171HS02004479    CONDUIT      3.01     0  01:43      0.54    0.00    0.30
  HS02004881HS02006253 CONDUIT      4.39     0  02:57      0.70    0.00    0.01
  YS02001793JiankangQianchi CONDUIT     46.53     0  03:10      7.43    0.00    0.52
  YS02001757CaochengTiaoxuchi CONDUIT     64.17     0  03:40      0.23    0.03    0.38
  WSF200WS02003060     CONDUIT    204.76     0  04:16      1.15    0.05    0.22
  1                    CONDUIT    532.25     0  05:46      2.79    0.19    0.29
  2                    CONDUIT      0.00     0  00:00      0.00    0.00    0.00
  3                    CONDUIT    250.55     0  00:00      8.26    0.40    0.46
  4                    CONDUIT      0.00     0  00:00      0.00    0.00    0.00
  CC-Pump-1            PUMP        58.49     0  03:52              0.29
  CC-Pump-2            PUMP       104.99     0  04:55              0.52
  JK-Pump-1            PUMP        61.50     0  03:12              0.20
  JK-Pump-2            PUMP       300.00     0  00:00              1.00
  XR-Pump-1            PUMP        95.00     0  00:20              1.00
  XR-Pump-2            PUMP        95.00     0  00:00              1.00
  XR-Pump-3            PUMP        95.00     0  00:00              1.00
  XR-Pump-4            PUMP        95.00     0  00:20              1.00
  
  
  ***************************
  Flow Classification Summary
  ***************************
  
  -------------------------------------------------------------------------------------
                      Adjusted    ---------- Fraction of Time in Flow Class ---------- 
                       /Actual         Up    Down  Sub   Sup   Up    Down  Norm  Inlet 
  Conduit               Length    Dry  Dry   Dry   Crit  Crit  Crit  Crit  Ltd   Ctrl  
  -------------------------------------------------------------------------------------
  WS02003066WSF200        1.00   0.06  0.05  0.00  0.00  0.89  0.00  0.00  0.78  0.00
  WS02006287WS02006284    1.00   0.07  0.03  0.00  0.90  0.00  0.00  0.00  0.81  0.00
  WS02006284WS02006280    1.00   0.08  0.00  0.00  0.00  0.00  0.00  0.92  0.00  0.00
  WS02006280WS02006229    1.00   0.08  0.00  0.00  0.00  0.00  0.00  0.92  0.00  0.00
  WS02006229WS02006228    1.00   0.00  0.00  0.00  0.97  0.00  0.00  0.03  0.00  0.00
  WS02006256WS02006235    1.00   0.00  0.00  0.00  0.99  0.01  0.00  0.00  0.00  0.00
  WS02006253WS02006251    1.00   0.06  0.02  0.00  0.92  0.00  0.00  0.00  0.00  0.00
  WS02006252WS02006251    1.00   0.21  0.00  0.00  0.00  0.00  0.79  0.00  0.00  0.00
  WS02006251WS02006249    1.00   0.00  0.00  0.00  1.00  0.00  0.00  0.00  0.46  0.00
  WS02006249WS02006248    1.00   0.00  0.04  0.00  0.65  0.00  0.31  0.00  0.00  0.00
  WS02006248WS02006247    1.00   0.04  0.00  0.00  0.95  0.00  0.00  0.00  0.44  0.00
  WS02006247WS02006245    1.00   0.04  0.00  0.00  0.96  0.00  0.00  0.00  0.00  0.00
  WS02006245WS02006243    1.00   0.02  0.01  0.00  0.84  0.00  0.00  0.13  0.01  0.00
  WS02006243WS02006242    1.00   0.01  0.01  0.00  0.98  0.00  0.00  0.00  0.77  0.00
  WS02006242WS02006240    1.00   0.01  0.00  0.00  0.99  0.00  0.00  0.00  0.00  0.00
  WS02006240WS02006239    1.00   0.00  0.00  0.00  0.90  0.00  0.00  0.10  0.03  0.00
  WS02006239WS02006238    1.00   0.00  0.00  0.00  1.00  0.00  0.00  0.00  0.00  0.00
  WS02006238WS02006235    1.00   0.00  0.00  0.00  1.00  0.00  0.00  0.00  0.00  0.00
  WS02006235WS02006234    1.00   0.00  0.00  0.00  0.89  0.00  0.11  0.00  0.00  0.00
  WS02006234WS02006232    1.00   0.00  0.00  0.00  0.99  0.01  0.00  0.00  0.07  0.00
  WS02006232WS02006231    1.00   0.00  0.01  0.00  0.99  0.00  0.01  0.00  0.00  0.00
  WS02006231WS02006230    1.00   0.01  0.00  0.00  0.00  0.00  0.99  0.00  0.00  0.00
  WS02006230WS02006229    1.00   0.00  0.00  0.00  0.97  0.00  0.00  0.03  0.01  0.00
  WS02006228WS02006109    1.00   0.00  0.00  0.00  0.99  0.00  0.00  0.01  0.00  0.00
  WS02006116WS02004401    1.00   0.05  0.00  0.00  0.95  0.00  0.00  0.00  0.00  0.00
  WS02006115WS02006116    1.00   0.05  0.00  0.00  0.94  0.00  0.00  0.01  0.00  0.00
  WS02006113WS02006111    1.00   0.04  0.00  0.00  0.00  0.96  0.00  0.00  0.10  0.00
  WS02006112WS02006115    1.00   0.04  0.01  0.00  0.95  0.00  0.00  0.00  0.00  0.00
  WS02006111WS02006112    1.00   0.04  0.00  0.00  0.95  0.00  0.00  0.00  0.98  0.00
  WS02006110WS02006113    1.00   0.02  0.02  0.00  0.96  0.00  0.00  0.00  0.00  0.00
  WS02006109WS02006110    1.00   0.00  0.02  0.00  0.97  0.00  0.01  0.00  0.00  0.00
  WS02004411WS02004412    1.00   0.07  0.00  0.00  0.93  0.00  0.00  0.00  0.00  0.00
  WS02004401WS02004402    1.00   0.05  0.00  0.00  0.95  0.00  0.00  0.00  0.00  0.00
  WS02004413WS02003067    1.00   0.08  0.03  0.00  0.00  0.00  0.90  0.00  0.00  0.00
  WS02004412WS02004413    1.00   0.07  0.00  0.00  0.93  0.00  0.00  0.00  0.03  0.00
  WS02004410WS02004411    1.00   0.07  0.00  0.00  0.93  0.00  0.00  0.00  0.03  0.00
  WS02004409WS02004410    1.00   0.07  0.00  0.00  0.93  0.00  0.00  0.00  0.03  0.00
  WS02004407WS02004409    1.00   0.07  0.00  0.00  0.92  0.00  0.00  0.00  0.89  0.00
  WS02004406WS02004407    1.00   0.00  0.07  0.00  0.93  0.00  0.00  0.00  0.00  0.00
  WS02004405WS02004406    1.00   0.00  0.00  0.00  1.00  0.00  0.00  0.00  0.00  0.00
  WS02004404WS02004405    1.00   0.00  0.00  0.00  1.00  0.00  0.00  0.00  0.00  0.00
  WS02004403WS02004404    1.00   0.00  0.05  0.00  0.95  0.00  0.00  0.00  0.01  0.00
  WS02004402WS02004403    1.00   0.05  0.00  0.00  0.95  0.00  0.00  0.00  0.00  0.00
  WS02004139WS02001211    1.00   0.00  0.00  0.00  0.99  0.00  0.01  0.00  0.00  0.00
  WS02004138WS02004139    1.00   0.00  0.00  0.00  0.98  0.02  0.00  0.00  1.00  0.00
  WS02003067WS02003066    1.00   0.10  0.01  0.00  0.89  0.00  0.00  0.00  0.00  0.00
  WS02001213WS02003059    1.00   0.00  0.01  0.00  0.99  0.00  0.00  0.00  0.00  0.00
  WS02001212WS02001213    1.00   0.01  0.00  0.00  0.15  0.00  0.84  0.00  0.00  0.00
  WS02001211WS02001212    1.00   0.00  0.01  0.00  0.99  0.00  0.00  0.00  0.00  0.00
  WS02003072WS02003073    1.00   0.00  0.00  0.00  0.00  0.00  0.00  1.00  0.00  0.00
  WS02003069WS02003072    1.00   0.00  0.00  0.00  0.99  0.01  0.00  0.00  0.59  0.00
  WS02003060WS02003069    1.00   0.00  0.00  0.00  0.97  0.03  0.00  0.00  0.27  0.00
  WS02003059WS02003060    1.00   0.00  0.00  0.00  0.99  0.01  0.00  0.00  0.01  0.00
  HS02004901HS02004770    1.00   0.08  0.00  0.00  0.91  0.00  0.00  0.00  0.04  0.00
  HS02004876HS02004881    1.00   0.04  0.00  0.00  0.96  0.00  0.00  0.00  0.00  0.00
  HS02004870HS02004876    1.00   0.01  0.00  0.00  0.99  0.00  0.00  0.00  0.95  0.00
  HS02004842HS02004848    1.00   0.00  0.09  0.00  0.91  0.00  0.00  0.00  0.85  0.00
  HS02004837HS02004842    1.00   0.00  0.00  0.00  0.99  0.01  0.00  0.00  0.11  0.00
  HS02004830HS02004837    1.00   0.00  0.00  0.00  1.00  0.00  0.00  0.00  0.99  0.00
  HS02004824HS02004830    1.00   0.00  0.00  0.00  1.00  0.00  0.00  0.00  0.00  0.00
  HS02004817HS02004824    1.00   0.00  0.00  0.00  1.00  0.00  0.00  0.00  1.00  0.00
  HS02004770HS02004777    1.00   0.00  0.08  0.00  0.91  0.00  0.00  0.00  0.08  0.00
  HS02004799HS02004480    1.00   0.01  0.05  0.00  0.89  0.00  0.06  0.00  0.00  0.00
  HS02004792HS02004799    1.00   0.00  0.00  0.00  0.97  0.03  0.00  0.00  0.98  0.00
  HS02004788HS02004792    1.00   0.00  0.00  0.00  0.98  0.02  0.00  0.00  0.98  0.00
  HS02004785HS02004788    1.00   0.00  0.00  0.00  1.00  0.00  0.00  0.00  0.00  0.00
  HS02004777HS02004785    1.00   0.00  0.00  0.00  1.00  0.00  0.00  0.00  0.24  0.00
  HS02004480HS02004478    1.00   0.09  0.00  0.00  0.86  0.00  0.00  0.04  0.00  0.00
  HS02004479HS02004480    1.00   0.05  0.00  0.00  0.95  0.00  0.00  0.00  0.17  0.00
  HS02004862HS02004870    1.00   0.00  0.00  0.00  1.00  0.00  0.00  0.00  0.07  0.00
  HS02004848HS02004852    1.00   0.09  0.00  0.00  0.91  0.00  0.00  0.00  0.63  0.00
  HS02004856HS02004862    1.00   0.00  0.14  0.00  0.86  0.00  0.00  0.00  0.69  0.00
  HS02004852HS02004856    1.00   0.08  0.02  0.00  0.90  0.00  0.00  0.00  0.80  0.00
  HS02004802HS02004478    1.00   0.08  0.01  0.00  0.90  0.00  0.00  0.00  0.00  0.00
  HS02004478WS02006287    1.00   0.10  0.00  0.00  0.90  0.00  0.00  0.00  0.81  0.00
  HS02004817HS02004807    1.00   0.00  0.08  0.00  0.92  0.00  0.00  0.00  0.00  0.00
  HS02004807HS02004802    1.00   0.08  0.00  0.00  0.91  0.00  0.00  0.00  0.01  0.00
  YS02001759YS02001757    1.00   0.00  0.00  0.00  1.00  0.00  0.00  0.00  0.17  0.00
  YS02001762YS02001759    1.00   0.00  0.00  0.00  1.00  0.00  0.00  0.00  0.06  0.00
  YS02001765YS02001762    1.00   0.00  0.00  0.00  1.00  0.00  0.00  0.00  0.25  0.00
  YS02001770YS02001767    1.00   0.00  0.00  0.00  1.00  0.00  0.00  0.00  0.00  0.00
  YS02001774YS02001770    1.00   0.00  0.10  0.00  0.89  0.00  0.00  0.00  0.07  0.00
  YS02001779YS02001774    1.00   0.00  0.00  0.00  1.00  0.00  0.00  0.00  0.33  0.00
  YS02001649YS02001757    1.00   0.00  0.00  0.00  1.00  0.00  0.00  0.00  0.20  0.00
  YS02001767YS02001765    1.00   0.00  0.00  0.00  1.00  0.00  0.00  0.00  0.01  0.00
  YS02006561YS02001783    1.00   0.14  0.00  0.00  0.00  0.86  0.00  0.00  0.69  0.00
  YS02001783YS02001784    1.00   0.00  0.14  0.00  0.86  0.00  0.00  0.00  0.70  0.00
  YS02001784YS02001785    1.00   0.00  0.00  0.00  1.00  0.00  0.00  0.00  0.29  0.00
  YS02001788YS02001790    1.00   0.00  0.00  0.00  0.15  0.85  0.00  0.00  1.00  0.00
  YS02001790YS02001791    1.00   0.00  0.00  0.00  0.03  0.97  0.00  0.00  0.00  0.00
  YS02001791YS02001793    1.00   0.00  0.00  0.00  0.00  1.00  0.00  0.00  0.00  0.00
  YS02001910YS02001907    1.00   0.00  0.00  0.00  0.95  0.00  0.00  0.05  0.13  0.00
  YS02001786YS02001788    1.00   0.00  0.00  0.00  0.93  0.07  0.00  0.00  0.00  0.00
  YS02001915YS02001910    1.00   0.00  0.00  0.00  0.98  0.02  0.00  0.00  0.28  0.00
  YS02001918YS02001915    1.00   0.00  0.01  0.00  0.96  0.03  0.00  0.00  0.78  0.00
  YS02001923YS02001920    1.00   0.00  0.00  0.00  1.00  0.00  0.00  0.00  1.00  0.00
  YS02001926YS02001923    1.00   0.00  0.06  0.00  0.00  0.00  0.94  0.00  0.00  0.00
  YS02001929YS02001926    1.00   0.00  0.08  0.00  0.92  0.00  0.00  0.00  0.86  0.00
  YS02001920YS02001918    1.00   0.00  0.01  0.00  0.99  0.00  0.00  0.00  0.00  0.00
  YS02001629YS02163301    1.00   0.12  0.01  0.00  0.87  0.00  0.00  0.00  0.00  0.00
  YS02001619YS02001622    1.00   0.08  0.00  0.00  0.92  0.00  0.00  0.00  0.00  0.00
  YS02001622YS02001625    1.00   0.09  0.00  0.00  0.91  0.00  0.00  0.00  0.19  0.00
  YS02001625YS02001629    1.00   0.09  0.07  0.00  0.80  0.00  0.05  0.00  0.00  0.00
  YS02163301YS02001633    1.00   0.00  0.12  0.00  0.88  0.00  0.00  0.00  0.00  0.00
  YS02163601YS02164001    1.00   0.00  0.07  0.00  0.93  0.00  0.00  0.00  0.00  0.00
  YS02164001YS02001641    1.00   0.02  0.05  0.00  0.93  0.00  0.00  0.00  0.07  0.00
  YS02001641YS02001644    1.00   0.00  0.01  0.00  0.99  0.00  0.00  0.00  0.00  0.00
  YS02001647YS02001649    1.00   0.00  0.14  0.00  0.86  0.00  0.00  0.00  0.01  0.00
  YS02006553YS02006556    1.00   0.03  0.00  0.00  0.97  0.00  0.00  0.00  0.03  0.00
  YS02006556YS02006558    1.00   0.00  0.01  0.00  0.99  0.00  0.00  0.00  0.00  0.00
  YSB6556YSB1171          1.00   0.05  0.03  0.00  0.92  0.00  0.00  0.00  0.00  0.00
  YS02001907YS02006553    1.00   0.01  0.04  0.00  0.95  0.00  0.00  0.00  0.00  0.00
  YS02006558YS02006561    1.00   0.14  0.00  0.00  0.00  0.86  0.00  0.00  0.34  0.00
  YS02001633YS02163601    1.00   0.00  0.01  0.00  0.99  0.00  0.00  0.00  0.21  0.00
  YS02001644YS02001647    1.00   0.00  0.14  0.00  0.86  0.00  0.00  0.00  0.00  0.00
  YS02001745YS02001748    1.00   0.00  0.00  0.00  0.00  0.00  0.00  1.00  0.00  0.00
  YS02001748YS02001751    1.00   0.00  0.00  0.00  0.93  0.07  0.00  0.00  0.83  0.00
  YS02001751YS02001754    1.00   0.00  0.00  0.00  0.84  0.00  0.00  0.16  0.07  0.00
  YS02001754YS02001757    1.00   0.00  0.00  0.00  0.99  0.01  0.00  0.00  0.32  0.00
  YS02001882YS02001884    1.00   0.11  0.01  0.00  0.88  0.00  0.00  0.00  0.00  0.00
  YS02001884YS02001887    1.00   0.06  0.02  0.00  0.92  0.00  0.00  0.00  0.00  0.00
  YS02001890YS02001895    1.00   0.01  0.12  0.00  0.87  0.00  0.00  0.00  0.00  0.00
  YS02001895YS02001898    1.00   0.13  0.00  0.00  0.85  0.00  0.02  0.00  0.00  0.00
  YS02001898YS02001901    1.00   0.12  0.01  0.00  0.87  0.00  0.00  0.00  0.02  0.00
  YS02001901YS02001904    1.00   0.12  0.00  0.00  0.88  0.00  0.00  0.00  0.00  0.00
  YS02001904YS02001907    1.00   0.01  0.11  0.00  0.88  0.00  0.00  0.00  0.00  0.00
  YS02001887YS02001890    1.00   0.00  0.00  0.00  0.95  0.00  0.04  0.00  0.00  0.00
  YS02001652YS02001649    1.00   0.00  0.00  0.00  1.00  0.00  0.00  0.00  0.31  0.00
  YS02001655YS02001652    1.00   0.00  0.00  0.00  0.84  0.00  0.00  0.15  0.08  0.00
  YS02001658YS02001655    1.00   0.00  0.11  0.00  0.82  0.07  0.00  0.00  0.78  0.00
  YS02001661YS02001658    1.00   0.11  0.00  0.00  0.00  0.89  0.00  0.00  0.73  0.00
  YS02001664YS02001661    1.00   0.08  0.00  0.00  0.92  0.00  0.00  0.00  0.86  0.00
  YSB1154YSB6556          1.00   0.08  0.00  0.00  0.92  0.00  0.00  0.00  0.02  0.00
  YSB1174YSB1171          1.00   0.06  0.01  0.00  0.93  0.00  0.00  0.00  0.00  0.00
  YSB1171HS02004479       1.00   0.05  0.00  0.00  0.94  0.00  0.00  0.00  0.14  0.00
  HS02004881HS02006253    1.00   0.06  0.00  0.00  0.00  0.00  0.00  0.94  0.00  0.00
  YS02001793JiankangQianchi    1.00   0.00  0.00  0.00  0.14  0.85  0.00  0.00  0.10  0.00
  YS02001757CaochengTiaoxuchi    1.00   0.00  0.21  0.00  0.79  0.00  0.00  0.00  0.00  0.00
  WSF200WS02003060        1.00   0.00  0.06  0.00  0.93  0.02  0.00  0.00  0.93  0.00
  1                       1.00   0.00  0.00  0.00  0.00  1.00  0.00  0.00  0.41  0.00
  2                       1.00   1.00  0.00  0.00  0.00  0.00  0.00  0.00  0.00  0.00
  3                       1.00   0.94  0.00  0.00  0.00  0.06  0.00  0.00  0.97  0.00
  4                       1.00   1.00  0.00  0.00  0.00  0.00  0.00  0.00  0.00  0.00
  
  
  *************************
  Conduit Surcharge Summary
  *************************
  
  ----------------------------------------------------------------------------
                                                           Hours        Hours 
                         --------- Hours Full --------   Above Full   Capacity
  Conduit                Both Ends  Upstream  Dnstream   Normal Flow   Limited
  ----------------------------------------------------------------------------
  WS02006256WS02006235        3.51      3.51      7.66      0.28         0.01
  WS02006235WS02006234        0.01      0.01      0.01      2.73         0.01
  WS02006231WS02006230        0.01      0.01      0.01      4.49         0.01
  WS02006230WS02006229        0.01      0.01      0.01      5.16         0.01
  WS02004404WS02004405        0.01      0.01      0.01      4.01         0.01
  WS02003072WS02003073        0.01      0.01      0.01      0.96         0.01
  YS02001793JiankangQianchi        0.01      0.01      0.11      0.01         0.01
  
  
  ***************
  Pumping Summary
  ***************
  
  ---------------------------------------------------------------------------------------------------------
                                                  Min       Avg       Max     Total     Power    % Time Off
                        Percent   Number of      Flow      Flow      Flow    Volume     Usage    Pump Curve
  Pump                 Utilized   Start-Ups       LPS       LPS       LPS  10^6 ltr     Kw-hr    Low   High
  ---------------------------------------------------------------------------------------------------------
  CC-Pump-1               42.37          14      0.00     36.91     58.49     0.414      1.65    0.0  100.0
  CC-Pump-2               50.89          13      0.00     40.08    104.99     0.544      2.16    0.0  100.0
  JK-Pump-1               72.32           5      0.00     23.33     61.50     0.364      6.72    0.0    0.0
  JK-Pump-2               89.35           6      0.00     42.21    300.00     0.725     12.81    0.0    0.0
  XR-Pump-1               80.84           6      0.00     69.93     95.00     1.567     33.82    0.0    0.0
  XR-Pump-2               74.48           7      0.00     60.92     95.00     1.283     27.40    0.0    0.0
  XR-Pump-3               87.23           4      0.00     76.25     95.00     1.796     39.41    0.0    0.0
  XR-Pump-4               95.74           2      0.00     72.00     95.00     1.966     42.82    0.0    0.0
  

  Analysis begun on:  Fri Dec 24 12:36:16 2021
  Analysis ended on:  Fri Dec 24 12:36:17 2021
  Total elapsed time: 00:00:01