
  EPA STORM WATER MANAGEMENT MODEL - VERSION 5.1 (Build 5.3.0.dev0)
  --------------------------------------------------------------

  WARNING 04: minimum elevation drop used for Conduit WS02004404WS02004405
  WARNING 03: negative offset ignored for Link YS02001904YS02001907
  
  *********************************************************
  NOTE: The summary statistics displayed in this report are
  based on results found at every computational time step,  
  not just on results from each reporting time step.
  *********************************************************
  
  ****************
  Analysis Options
  ****************
  Flow Units ............... LPS
  Process Models:
    Rainfall/Runoff ........ YES
    RDII ................... NO
    Snowmelt ............... NO
    Groundwater ............ NO
    Flow Routing ........... YES
    Ponding Allowed ........ NO
    Water Quality .......... NO
  Infiltration Method ...... HORTON
  Flow Routing Method ...... DYNWAVE
  Surcharge Method ......... EXTRAN
  Starting Date ............ 08/28/2015 08:00:00
  Ending Date .............. 08/28/2015 15:50:00
  Antecedent Dry Days ...... 8.0
  Report Time Step ......... 00:01:00
  Wet Time Step ............ 00:01:00
  Dry Time Step ............ 00:01:00
  Routing Time Step ........ 5.00 sec
  Variable Time Step ....... YES
  Maximum Trials ........... 8
  Number of Threads ........ 4
  Head Tolerance ........... 0.001500 m
  
  
  **************************        Volume         Depth
  Runoff Quantity Continuity     hectare-m            mm
  **************************     ---------       -------
  Total Precipitation ......         3.047         6.671
  Evaporation Loss .........         0.000         0.000
  Infiltration Loss ........         0.769         1.684
  Surface Runoff ...........         1.365         2.989
  Final Storage ............         0.913         1.999
  Continuity Error (%) .....        -0.018
  
  
  **************************        Volume        Volume
  Flow Routing Continuity        hectare-m      10^6 ltr
  **************************     ---------     ---------
  Dry Weather Inflow .......         0.616         6.165
  Wet Weather Inflow .......         1.365        13.646
  Groundwater Inflow .......         0.000         0.000
  RDII Inflow ..............         0.000         0.000
  External Inflow ..........         0.102         1.024
  External Outflow .........         1.764        17.642
  Flooding Loss ............         0.025         0.247
  Evaporation Loss .........         0.000         0.000
  Exfiltration Loss ........         0.000         0.000
  Initial Stored Volume ....         0.076         0.761
  Final Stored Volume ......         0.465         4.646
  Continuity Error (%) .....        -4.355
  
  
  *************************
  Highest Continuity Errors
  *************************
  Node HS02004842 (26.05%)
  Node YS02001774 (24.49%)
  Node JK-storage (-22.03%)
  Node YS02001884 (20.54%)
  Node YSB1171 (6.05%)
  
  
  ***************************
  Time-Step Critical Elements
  ***************************
  Link WS02006252WS02006251 (57.85%)
  Link 3 (32.58%)
  Link WS02006238WS02006235 (3.75%)
  Link WS02006280WS02006229 (1.68%)
  
  
  ********************************
  Highest Flow Instability Indexes
  ********************************
  Link WS02006113WS02006111 (39)
  Link WS02006111WS02006112 (24)
  Link YS02006558YS02006561 (12)
  Link YS02164001YS02001641 (12)
  Link YS02001629YS02163301 (12)
  
  
  *************************
  Routing Time Step Summary
  *************************
  Minimum Time Step           :     0.25 sec
  Average Time Step           :     0.84 sec
  Maximum Time Step           :     5.00 sec
  Percent in Steady State     :    -0.00
  Average Iterations per Step :     3.52
  Percent Not Converging      :    17.70
  
  
  ***************************
  Subcatchment Runoff Summary
  ***************************
  
  ------------------------------------------------------------------------------------------------------------------------------
                            Total      Total      Total      Total     Imperv       Perv      Total       Total     Peak  Runoff
                           Precip      Runon       Evap      Infil     Runoff     Runoff     Runoff      Runoff   Runoff   Coeff
  Subcatchment                 mm         mm         mm         mm         mm         mm         mm    10^6 ltr      LPS
  ------------------------------------------------------------------------------------------------------------------------------
  sub0                       6.67       0.00       0.00       0.47       4.94       0.00       4.94        0.00     1.69   0.740
  sub1                       6.67       0.00       0.00       0.73       4.68       0.00       4.68        0.03     8.99   0.702
  sub2                       6.67       0.00       0.00       2.47       3.30       0.00       3.30        0.03     7.97   0.494
  sub3                       6.67       0.00       0.00       2.47       3.26       0.00       3.26        0.07    16.48   0.489
  sub4                       6.67       0.00       0.00       0.73       4.54       0.00       4.54        0.09    18.57   0.681
  sub5                       6.67       0.00       0.00       0.47       4.89       0.00       4.89        0.06    15.99   0.733
  sub7                       6.67       0.00       0.00       0.60       4.82       0.00       4.82        0.02     5.61   0.722
  sub8                       6.67       0.00       0.00       0.60       4.81       0.00       4.81        0.03     9.92   0.721
  sub9                       6.67       0.00       0.00       0.60       4.80       0.00       4.80        0.02     7.36   0.720
  sub10                      6.67       0.00       0.00       0.53       4.85       0.00       4.85        0.05    15.94   0.726
  sub11                      6.67       0.00       0.00       0.53       4.86       0.00       4.86        0.06    18.64   0.729
  sub12                      6.67       0.00       0.00       0.87       4.62       0.00       4.62        0.04    15.69   0.692
  sub14                      6.67       0.00       0.00       0.60       4.80       0.00       4.80        0.05    14.38   0.720
  sub15                      6.67       0.00       0.00       2.00       3.69       0.00       3.69        0.06    19.52   0.553
  sub16                      6.67       0.00       0.00       2.20       3.55       0.00       3.55        0.04    13.83   0.532
  sub17                      6.67       0.00       0.00       2.13       3.60       0.00       3.60        0.03    11.18   0.540
  sub22                      6.67       0.00       0.00       2.87       3.01       0.00       3.01        0.19    63.78   0.452
  sub23                      6.67       0.00       0.00       2.47       3.33       0.00       3.33        0.16    54.27   0.500
  sub60                      6.67       0.00       0.00       0.80       3.35       0.00       3.35        1.02    97.43   0.502
  sub61                      6.67       0.00       0.00       1.13       3.55       0.00       3.55        1.09   121.21   0.532
  sub62                      6.67       0.00       0.00       0.53       3.82       0.00       3.82        1.17   124.17   0.572
  sub63                      6.67       0.00       0.00       1.93       3.15       0.00       3.15        0.95   112.77   0.472
  sub64                      6.67       0.00       0.00       1.00       3.20       0.00       3.20        0.97    92.59   0.480
  sub65                      6.67       0.00       0.00       0.87       3.25       0.00       3.25        1.00    93.99   0.486
  sub66                      6.67       0.00       0.00       1.93       2.79       0.00       2.79        0.85    84.64   0.418
  sub67                      6.67       0.00       0.00       0.53       4.17       0.00       4.17        1.29   158.23   0.624
  sub68                      6.67       0.00       0.00       0.93       3.77       0.00       3.77        1.16   133.74   0.565
  sub69                      6.67       0.00       0.00       1.00       4.04       0.00       4.04        0.94   131.76   0.605
  sub70                      6.67       4.12       0.00       3.67       5.04       0.00       5.04        1.15   109.50   0.467
  sub71                      6.67       0.00       0.00       0.53       3.66       0.00       3.66        0.86    86.93   0.549
  sub72                      6.67       0.00       0.00       0.47       2.64       0.00       2.64        0.54    41.54   0.395
  sub73                      6.67       4.91       0.00       3.94       5.20       0.00       5.20        1.22    94.59   0.449
  sub74                      6.67       0.00       0.00       5.00       1.21       0.00       1.21        0.49    73.30   0.182
  
  
  ******************
  Node Depth Summary
  ******************
  
  ---------------------------------------------------------------------------------
                                 Average  Maximum  Maximum  Time of Max    Reported
                                   Depth    Depth      HGL   Occurrence   Max Depth
  Node                 Type       Meters   Meters   Meters  days hr:min      Meters
  ---------------------------------------------------------------------------------
  WS02001211           JUNCTION     0.67     0.78     5.62     0  02:50        0.78
  WS02001212           JUNCTION     0.39     0.49     5.56     0  02:51        0.49
  WS02001213           JUNCTION     0.63     0.74     5.51     0  02:51        0.74
  WS02003069           JUNCTION     0.44     0.56     5.15     0  02:52        0.56
  WS02003072           JUNCTION     0.51     0.62     4.99     0  02:53        0.62
  WS02003073           JUNCTION     0.31     0.38     4.45     0  02:53        0.38
  WS02003060           JUNCTION     0.40     0.50     5.43     0  02:52        0.50
  WS02003066           JUNCTION     0.23     0.30     5.86     0  02:35        0.30
  WS02003059           JUNCTION     0.69     0.80     5.48     0  02:51        0.80
  WS02003067           JUNCTION     0.58     0.71     6.03     0  02:34        0.71
  WS02004401           JUNCTION     0.67     0.87     6.87     0  02:31        0.87
  WS02004402           JUNCTION     0.71     0.89     6.85     0  02:32        0.89
  WS02004403           JUNCTION     0.73     0.91     6.84     0  02:31        0.91
  WS02004404           JUNCTION     0.80     0.98     6.83     0  02:31        0.98
  WS02004406           JUNCTION     0.81     0.97     6.80     0  02:31        0.97
  WS02004409           JUNCTION     0.49     0.68     6.45     0  02:34        0.68
  WS02004410           JUNCTION     0.51     0.69     6.41     0  02:34        0.69
  WS02004411           JUNCTION     0.53     0.70     6.38     0  02:34        0.70
  WS02004412           JUNCTION     0.54     0.71     6.35     0  02:35        0.71
  WS02004413           JUNCTION     0.70     0.87     6.34     0  02:35        0.87
  WS02004405           JUNCTION     0.80     0.97     6.82     0  02:31        0.97
  WS02006109           JUNCTION     0.76     0.99     7.61     0  02:27        0.99
  WS02006110           JUNCTION     0.75     0.94     7.52     0  02:27        0.94
  WS02006111           JUNCTION     0.22     0.29     7.00     0  02:28        0.29
  WS02006112           JUNCTION     0.84     1.08     6.97     0  02:31        1.08
  WS02006113           JUNCTION     0.34     0.46     7.36     0  02:28        0.46
  WS02006115           JUNCTION     0.57     0.77     6.91     0  02:32        0.77
  WS02006116           JUNCTION     0.65     0.85     6.89     0  02:31        0.85
  WS02006230           JUNCTION     0.73     1.05     7.79     0  02:27        1.05
  WS02006231           JUNCTION     0.49     0.71     7.84     0  02:27        0.71
  WS02006232           JUNCTION     0.62     0.84     7.88     0  02:27        0.84
  WS02006234           JUNCTION     0.54     0.78     7.93     0  02:27        0.78
  WS02006235           JUNCTION     0.58     0.81     7.97     0  02:30        0.81
  WS02006238           JUNCTION     0.60     0.84     7.98     0  02:30        0.84
  WS02006240           JUNCTION     0.50     0.76     8.05     0  02:30        0.76
  WS02006242           JUNCTION     0.56     0.82     8.09     0  02:30        0.82
  WS02006243           JUNCTION     0.44     0.71     8.13     0  02:30        0.71
  WS02006245           JUNCTION     0.42     0.68     8.17     0  02:30        0.68
  WS02006247           JUNCTION     0.43     0.69     8.19     0  02:30        0.69
  WS02006248           JUNCTION     0.38     0.62     8.21     0  02:30        0.62
  WS02006249           JUNCTION     0.41     0.63     8.23     0  02:30        0.63
  WS02006239           JUNCTION     0.56     0.81     8.02     0  02:30        0.81
  WS02006251           JUNCTION     0.40     0.66     8.33     0  02:30        0.66
  WS02006252           JUNCTION     0.36     0.59     8.83     0  04:10        0.58
  WS02006253           JUNCTION     0.43     0.69     8.33     0  02:30        0.69
  WS02006256           JUNCTION     1.03     1.21     8.14     0  03:10        1.21
  WS02004138           JUNCTION     0.15     0.19     7.44     0  04:32        0.19
  WS02004407           JUNCTION     0.22     0.30     6.62     0  02:32        0.30
  WS02006228           JUNCTION     0.76     1.04     7.69     0  02:27        1.04
  WS02006229           JUNCTION     0.73     1.04     7.73     0  02:27        1.04
  WS02006280           JUNCTION     0.06     0.16     8.43     0  02:17        0.16
  WS02006284           JUNCTION     0.35     0.50     8.90     0  02:17        0.50
  WS02006287           JUNCTION     0.08     0.23     9.19     0  02:16        0.23
  WSF200               JUNCTION     0.22     0.32     5.55     0  02:35        0.32
  HS02004901           JUNCTION     0.11     0.25    10.07     0  02:14        0.25
  HS02004881           JUNCTION     0.01     0.03     9.06     0  02:16        0.03
  HS02004876           JUNCTION     0.04     0.11     9.14     0  02:13        0.11
  HS02004870           JUNCTION     0.01     0.05     9.33     0  02:17        0.05
  HS02004862           JUNCTION     0.01     0.05     9.44     0  02:18        0.05
  HS02004856           JUNCTION     0.07     0.11     9.53     0  02:17        0.11
  HS02004852           JUNCTION     0.01     0.03     9.54     0  02:18        0.03
  HS02004848           JUNCTION     0.01     0.03     9.63     0  02:17        0.03
  HS02004842           JUNCTION     0.33     0.36     9.63     0  02:17        0.36
  HS02004837           JUNCTION     0.03     0.05     9.63     0  02:17        0.05
  HS02004830           JUNCTION     0.04     0.07     9.53     0  02:17        0.07
  HS02004824           JUNCTION     0.02     0.04     9.45     0  02:20        0.04
  HS02004817           JUNCTION     0.43     0.54     9.39     0  02:17        0.54
  HS02004807           JUNCTION     0.11     0.22     9.39     0  02:17        0.22
  HS02004802           JUNCTION     0.15     0.25     9.38     0  02:17        0.25
  HS02004799           JUNCTION     0.10     0.28     9.49     0  02:15        0.28
  HS02004792           JUNCTION     0.03     0.11     9.63     0  02:14        0.11
  HS02004788           JUNCTION     0.02     0.08     9.98     0  02:15        0.08
  HS02004785           JUNCTION     0.04     0.15    10.05     0  02:15        0.15
  HS02004777           JUNCTION     0.14     0.27    10.07     0  02:14        0.27
  HS02004770           JUNCTION     0.11     0.24    10.07     0  02:14        0.24
  HS02004480           JUNCTION     0.07     0.22     9.46     0  02:15        0.22
  HS02004479           JUNCTION     0.10     0.26     9.46     0  02:15        0.26
  HS02004478           JUNCTION     0.05     0.14     9.37     0  02:16        0.14
  YS02001745           JUNCTION     0.25     0.50     8.02     0  05:43        0.49
  YS02001748           JUNCTION     0.63     0.93     8.01     0  05:43        0.92
  YS02001751           JUNCTION     0.81     2.20     9.08     0  04:14        1.12
  YS02001754           JUNCTION     1.06     2.09     8.70     0  04:14        1.38
  YS02001762           JUNCTION     1.25     1.79     8.19     0  04:14        1.60
  YS02001765           JUNCTION     1.21     1.80     8.25     0  04:14        1.55
  YS02001767           JUNCTION     1.17     1.80     8.29     0  04:14        1.51
  YS02001770           JUNCTION     1.17     1.90     8.39     0  04:14        1.51
  YS02001774           JUNCTION     1.23     1.98     8.40     0  04:14        1.59
  YS02001779           JUNCTION     0.99     1.68     8.37     0  03:51        1.32
  YS02001882           JUNCTION     0.31     0.52     7.23     0  02:54        0.52
  YS02001884           JUNCTION     0.40     0.62     7.23     0  02:54        0.62
  YS02001759           JUNCTION     1.29     1.82     8.18     0  04:14        1.63
  YS02001887           JUNCTION     0.48     0.70     7.23     0  02:53        0.70
  YS02001890           JUNCTION     0.51     0.73     7.23     0  02:53        0.72
  YS02001898           JUNCTION     0.28     0.48     7.22     0  02:53        0.48
  YS02001901           JUNCTION     0.40     0.61     7.22     0  02:52        0.61
  YS02001904           JUNCTION     0.38     0.58     7.21     0  02:52        0.58
  YS02001907           JUNCTION     0.71     0.92     7.21     0  02:53        0.92
  YS02001910           JUNCTION     0.50     0.71     7.21     0  02:52        0.71
  YS02001915           JUNCTION     0.30     0.49     7.21     0  02:52        0.49
  YS02001918           JUNCTION     0.09     0.15     7.21     0  02:53        0.14
  YS02001619           JUNCTION     0.77     1.11     8.04     0  06:18        1.07
  YS02001629           JUNCTION     1.12     1.45     8.00     0  05:50        1.43
  YS02001641           JUNCTION     1.22     1.56     8.00     0  05:48        1.55
  YS02001644           JUNCTION     1.23     1.58     8.01     0  04:05        1.56
  YS02001652           JUNCTION     1.07     1.76     8.35     0  04:05        1.39
  YS02001655           JUNCTION     0.83     1.93     8.78     0  04:00        1.15
  YS02001920           JUNCTION     0.19     0.23     7.24     0  02:58        0.23
  YS02001923           JUNCTION     0.07     0.09     7.35     0  03:01        0.09
  YS02001926           JUNCTION     0.15     0.19     7.64     0  03:01        0.19
  YS02001929           JUNCTION     0.07     0.10     7.79     0  03:01        0.10
  YS02001658           JUNCTION     0.57     0.86     8.00     0  05:45        0.86
  YS02001661           JUNCTION     0.35     0.59     7.99     0  05:45        0.58
  YS02001664           JUNCTION     0.07     0.13     8.05     0  02:44        0.13
  YS02001622           JUNCTION     0.79     1.13     8.03     0  06:18        1.08
  YS02001633           JUNCTION     1.21     1.55     8.00     0  05:50        1.52
  YS02001649           JUNCTION     1.26     1.68     8.07     0  04:00        1.59
  YS02001757           JUNCTION     1.39     1.90     8.16     0  04:14        1.72
  YS02001895           JUNCTION     0.28     0.48     7.22     0  02:53        0.48
  YS02001625           JUNCTION     1.07     1.40     8.01     0  05:50        1.37
  YS02163301           JUNCTION     1.15     1.49     8.00     0  05:50        1.46
  YS02163601           JUNCTION     1.26     1.60     8.00     0  05:48        1.58
  YS02164001           JUNCTION     1.20     1.54     8.00     0  05:48        1.53
  YS02001647           JUNCTION     1.06     1.49     8.10     0  04:05        1.38
  YSB1154              JUNCTION     0.24     0.41     9.46     0  02:15        0.41
  YSB6556              JUNCTION     0.14     0.29     9.46     0  02:15        0.29
  YSB1174              JUNCTION     0.19     0.35     9.46     0  02:15        0.35
  YSB1171              JUNCTION     0.39     0.56     9.46     0  02:15        0.56
  YS02006553           JUNCTION     0.71     0.93     7.21     0  02:52        0.93
  YS02006561           JUNCTION     0.15     0.26     6.92     0  02:52        0.26
  YS02006556           JUNCTION     0.68     0.90     7.21     0  02:52        0.89
  YS02006558           JUNCTION     0.73     0.94     7.21     0  02:53        0.94
  YS02001783           JUNCTION     0.27     0.46     6.60     0  02:52        0.46
  YS02001784           JUNCTION     0.30     0.49     6.55     0  02:53        0.48
  YS02001786           JUNCTION     0.25     0.41     6.44     0  02:53        0.41
  YS02001788           JUNCTION     0.19     0.31     6.29     0  02:53        0.31
  YS02001790           JUNCTION     0.23     0.38     6.03     0  02:54        0.38
  YS02001791           JUNCTION     0.15     0.24     5.71     0  02:54        0.24
  YS02001793           JUNCTION     0.09     0.16     4.99     0  03:09        0.15
  WS02004139           JUNCTION     0.61     0.73     5.64     0  02:50        0.72
  WSC                  OUTFALL      0.31     0.38     1.05     0  02:53        0.38
  3                    OUTFALL      0.08     0.20     6.20     0  03:10        0.20
  4                    OUTFALL      0.02     0.13     7.13     0  02:30        0.13
  5                    OUTFALL      0.00     0.00     5.00     0  00:00        0.00
  JK-storage           STORAGE      0.47     3.13     3.93     0  03:37        3.13
  CC-storage           STORAGE      0.63     0.96     7.96     0  05:45        0.96
  XR-storage           STORAGE      6.21     7.72     5.72     0  05:32        7.72
  
  
  *******************
  Node Inflow Summary
  *******************
  
  -------------------------------------------------------------------------------------------------
                                  Maximum  Maximum                  Lateral       Total        Flow
                                  Lateral    Total  Time of Max      Inflow      Inflow     Balance
                                   Inflow   Inflow   Occurrence      Volume      Volume       Error
  Node                 Type           LPS      LPS  days hr:min    10^6 ltr    10^6 ltr     Percent
  -------------------------------------------------------------------------------------------------
  WS02001211           JUNCTION      7.35   388.28     0  04:39       0.207        7.09       0.586
  WS02001212           JUNCTION      0.00   388.98     0  04:39           0        7.05       0.346
  WS02001213           JUNCTION      0.00   389.57     0  04:38           0        7.03       0.382
  WS02003069           JUNCTION      0.32   884.87     0  02:52     0.00902        14.6       0.235
  WS02003072           JUNCTION      0.00   884.52     0  02:52           0        14.5       0.283
  WS02003073           JUNCTION      1.82   886.11     0  02:53      0.0514        14.5       0.325
  WS02003060           JUNCTION     16.53   884.80     0  02:51       0.466        14.6       0.223
  WS02003066           JUNCTION      0.00   557.27     0  02:35           0        7.17       0.062
  WS02003059           JUNCTION      0.00   390.62     0  04:38           0           7       0.587
  WS02003067           JUNCTION      0.00   557.25     0  02:35           0        7.18       0.130
  WS02004401           JUNCTION      0.00   561.79     0  02:30           0        7.41       0.286
  WS02004402           JUNCTION      0.00   561.13     0  02:30           0        7.39       0.270
  WS02004403           JUNCTION      0.00   560.74     0  02:30           0        7.37       0.246
  WS02004404           JUNCTION      0.16   560.50     0  02:31     0.00457        7.35       0.186
  WS02004406           JUNCTION      0.00   560.67     0  02:31           0        7.32       0.454
  WS02004409           JUNCTION      0.00   559.90     0  02:32           0        7.28       0.222
  WS02004410           JUNCTION      0.00   558.51     0  02:33           0        7.26       0.251
  WS02004411           JUNCTION      0.00   557.79     0  02:33           0        7.25       0.258
  WS02004412           JUNCTION      0.00   557.50     0  02:34           0        7.23       0.279
  WS02004413           JUNCTION      0.00   557.31     0  02:35           0        7.21       0.415
  WS02004405           JUNCTION      0.04   560.52     0  02:31     0.00107        7.34       0.278
  WS02006109           JUNCTION      1.23   559.58     0  02:27      0.0347         7.5       0.250
  WS02006110           JUNCTION      0.00   559.57     0  02:27           0        7.48       0.274
  WS02006111           JUNCTION      0.00   583.67     0  02:28           0        7.45       0.055
  WS02006112           JUNCTION     11.18   572.89     0  02:28      0.0309        7.47       0.394
  WS02006113           JUNCTION      0.00   560.02     0  02:28           0        7.46       0.128
  WS02006115           JUNCTION      0.00   571.81     0  02:32           0        7.45       0.275
  WS02006116           JUNCTION      0.00   563.50     0  02:29           0        7.42       0.239
  WS02006230           JUNCTION     10.28   393.85     0  05:12        0.29        6.47       0.191
  WS02006231           JUNCTION      0.00   385.81     0  05:12           0        6.19       0.169
  WS02006232           JUNCTION      0.00   385.99     0  05:12           0        6.21       0.249
  WS02006234           JUNCTION      0.00   387.34     0  05:11           0        6.22       0.121
  WS02006235           JUNCTION      0.00   387.47     0  05:11           0        6.26       0.169
  WS02006238           JUNCTION      0.00   309.13     0  07:22           0         4.3       0.173
  WS02006240           JUNCTION      0.00   323.38     0  05:51           0        4.29       0.261
  WS02006242           JUNCTION      0.00   334.57     0  05:51           0        4.29       0.326
  WS02006243           JUNCTION      0.00   340.55     0  05:51           0        4.28      -0.089
  WS02006245           JUNCTION      0.00   344.58     0  05:51           0        4.29       0.257
  WS02006247           JUNCTION      0.00   348.67     0  05:51           0        4.29       0.158
  WS02006248           JUNCTION      0.00   352.67     0  05:50           0         4.3       0.081
  WS02006249           JUNCTION      0.00   436.10     0  02:30           0        4.54       0.242
  WS02006239           JUNCTION      0.00   314.16     0  05:52           0        4.29       0.232
  WS02006251           JUNCTION      0.08   436.84     0  02:30     0.00217        4.57       0.194
  WS02006252           JUNCTION      0.00   399.98     0  05:10           0        4.37       0.010
  WS02006253           JUNCTION      1.69    50.39     0  02:16       0.004       0.202       1.882
  WS02006256           JUNCTION      0.00   600.00     0  03:00           0        4.92       0.051
  WS02004138           JUNCTION      0.00   380.00     0  04:30           0        6.93       0.086
  WS02004407           JUNCTION      0.00   560.22     0  02:31           0        7.29       0.099
  WS02006228           JUNCTION      0.00   558.35     0  02:27           0        7.48       0.183
  WS02006229           JUNCTION      0.00   557.86     0  02:28           0        7.49       0.168
  WS02006280           JUNCTION      0.00   254.25     0  02:17           0        1.03       0.007
  WS02006284           JUNCTION      0.10   254.24     0  02:16      0.0027        1.03       0.105
  WS02006287           JUNCTION      0.00   254.11     0  02:16           0        1.03       0.071
  WSF200               JUNCTION      0.00   557.29     0  02:35           0        7.16       0.057
  HS02004901           JUNCTION     13.83    13.83     0  02:09      0.0371      0.0373       4.945
  HS02004881           JUNCTION      5.61    49.06     0  02:16      0.0162       0.172       0.180
  HS02004876           JUNCTION      8.99    43.76     0  02:16      0.0311       0.156       0.341
  HS02004870           JUNCTION      9.92    34.94     0  02:16      0.0307       0.125       0.086
  HS02004862           JUNCTION      8.17    25.65     0  02:17      0.0363      0.0944       0.180
  HS02004856           JUNCTION      7.36    17.53     0  02:16      0.0231      0.0595       2.477
  HS02004852           JUNCTION      0.00    10.62     0  02:17           0      0.0365       0.142
  HS02004848           JUNCTION     16.48    16.48     0  02:20      0.0734      0.0734       0.060
  HS02004842           JUNCTION      0.00     6.44     0  02:29           0      0.0499      35.227
  HS02004837           JUNCTION     22.29    27.65     0  02:16       0.232       0.269       0.302
  HS02004830           JUNCTION      0.15    27.78     0  02:17     0.00423        0.26       0.477
  HS02004824           JUNCTION     18.62    46.16     0  02:20      0.0961       0.355       0.152
  HS02004817           JUNCTION      0.60    46.76     0  02:20      0.0169       0.371       4.704
  HS02004807           JUNCTION     18.64    63.78     0  02:18      0.0565       0.411       1.040
  HS02004802           JUNCTION      0.00    64.20     0  02:19           0       0.407       1.010
  HS02004799           JUNCTION     14.38   162.39     0  02:14      0.0457       0.544       0.421
  HS02004792           JUNCTION     64.06   148.26     0  02:14       0.198       0.499       0.082
  HS02004788           JUNCTION     21.19    86.25     0  02:15       0.111       0.302       0.128
  HS02004785           JUNCTION      0.15    65.39     0  02:14     0.00423       0.193       0.251
  HS02004777           JUNCTION      0.03    65.71     0  02:13    0.000846       0.194       2.749
  HS02004770           JUNCTION     54.27    66.84     0  02:11       0.159       0.194       1.618
  HS02004480           JUNCTION      0.00   191.60     0  02:15           0       0.637       0.117
  HS02004479           JUNCTION      0.00    29.76     0  02:16           0       0.105       0.699
  HS02004478           JUNCTION      0.00   254.08     0  02:16           0        1.03       0.060
  YS02001745           JUNCTION     97.44   161.27     0  04:13        1.01        1.12       0.237
  YS02001748           JUNCTION      0.04   344.05     0  04:13     0.00127        1.23       1.112
  YS02001751           JUNCTION      0.01   360.75     0  04:14     0.00031        1.11       1.510
  YS02001754           JUNCTION      0.26   150.36     0  03:58     0.00733       0.996       2.274
  YS02001762           JUNCTION      0.00   131.24     0  02:47           0         1.1       1.944
  YS02001765           JUNCTION      0.00   139.29     0  02:34           0        1.11       2.247
  YS02001767           JUNCTION      0.54   138.07     0  02:40      0.0151        1.13       3.284
  YS02001770           JUNCTION    124.32   144.69     0  02:39        1.18        1.21       2.649
  YS02001774           JUNCTION      0.00    49.50     0  02:13           0       0.103      32.435
  YS02001779           JUNCTION      0.01    44.07     0  03:51    0.000141      0.0456      46.625
  YS02001882           JUNCTION      0.00     4.75     0  02:05           0     0.00622      39.792
  YS02001884           JUNCTION      0.00    13.70     0  02:05           0      0.0247      25.857
  YS02001759           JUNCTION    121.25   252.65     0  02:46         1.1        2.16       1.063
  YS02001887           JUNCTION    158.68   158.68     0  02:42         1.3        1.31       0.566
  YS02001890           JUNCTION      0.00   158.11     0  02:46           0        1.28       0.633
  YS02001898           JUNCTION      0.00   157.69     0  02:46           0        1.27       0.188
  YS02001901           JUNCTION      0.00   157.36     0  02:45           0        1.27       0.453
  YS02001904           JUNCTION      0.00   157.28     0  02:45           0        1.27       0.421
  YS02001907           JUNCTION      0.00   288.73     0  02:53           0        2.73       0.826
  YS02001910           JUNCTION      0.00   131.78     0  03:01           0        1.47       0.712
  YS02001915           JUNCTION     86.94   131.42     0  02:58       0.865        1.48       0.326
  YS02001918           JUNCTION      0.00    44.54     0  03:03           0       0.615       0.205
  YS02001619           JUNCTION     84.64    84.64     0  02:58       0.854       0.857       1.116
  YS02001629           JUNCTION      0.00   147.00     0  04:30           0       0.819       3.111
  YS02001641           JUNCTION      0.00   183.35     0  02:59           0        1.69       1.256
  YS02001644           JUNCTION     92.63   275.01     0  02:59       0.974        2.63       1.003
  YS02001652           JUNCTION      0.00   166.25     0  02:56           0       0.937       2.296
  YS02001655           JUNCTION      0.15   325.17     0  03:59     0.00434        1.02       2.112
  YS02001920           JUNCTION      2.87    44.40     0  03:01      0.0809       0.617       0.358
  YS02001923           JUNCTION      0.04    41.53     0  03:01     0.00106       0.537       0.063
  YS02001926           JUNCTION      0.05    41.57     0  03:01     0.00147       0.538       0.445
  YS02001929           JUNCTION     41.54    41.54     0  03:01       0.537       0.537       0.062
  YS02001658           JUNCTION      0.00   382.38     0  03:59           0        1.21       1.147
  YS02001661           JUNCTION      0.00   224.09     0  04:04           0        1.14       0.490
  YS02001664           JUNCTION    112.77   112.77     0  02:44       0.954       0.954       0.007
  YS02001622           JUNCTION      0.00   103.20     0  04:37           0       0.884       3.116
  YS02001633           JUNCTION     94.19   184.92     0  02:59           1        1.75       1.860
  YS02001649           JUNCTION      0.00   400.13     0  02:59           0        3.47       1.068
  YS02001757           JUNCTION      0.00   708.58     0  03:02           0         6.5       1.434
  YS02001895           JUNCTION      0.00   157.86     0  02:46           0        1.28       0.308
  YS02001625           JUNCTION      0.00   146.65     0  04:30           0       0.891       4.519
  YS02163301           JUNCTION      0.00   115.12     0  02:37           0       0.771       3.195
  YS02163601           JUNCTION      0.11   185.11     0  02:59      0.0031        1.71       1.791
  YS02164001           JUNCTION      0.00   184.78     0  02:59           0        1.69       1.187
  YS02001647           JUNCTION      0.00   273.61     0  02:59           0        2.59       1.069
  YSB1154              JUNCTION     15.99    15.99     0  02:14      0.0554      0.0567       2.612
  YSB6556              JUNCTION      0.00    15.99     0  02:16           0      0.0577       2.210
  YSB1174              JUNCTION     15.69    15.69     0  02:09      0.0403      0.0413       3.205
  YSB1171              JUNCTION      0.00    29.74     0  02:15           0       0.105       6.437
  YS02006553           JUNCTION      0.00   288.26     0  02:52           0        2.72       0.535
  YS02006561           JUNCTION      0.00   442.70     0  02:53           0        3.85       0.015
  YS02006556           JUNCTION      0.00   287.39     0  02:53           0        2.73       0.387
  YS02006558           JUNCTION    134.62   421.99     0  02:53        1.18        3.88       0.123
  YS02001783           JUNCTION      0.00   421.40     0  02:52           0        3.85       0.044
  YS02001784           JUNCTION      1.06   421.87     0  02:53      0.0299        3.88       0.071
  YS02001786           JUNCTION      0.06   421.70     0  02:53     0.00159        3.88       0.068
  YS02001788           JUNCTION      0.07   421.77     0  02:53       0.002        3.88       0.040
  YS02001790           JUNCTION      0.15   422.19     0  02:54     0.00437        3.88       0.050
  YS02001791           JUNCTION      0.00   421.83     0  02:54           0        3.88       0.025
  YS02001793           JUNCTION      0.00   421.89     0  02:54           0        3.88       0.009
  WS02004139           JUNCTION      0.32   380.32     0  04:32     0.00905        6.93       0.643
  WSC                  OUTFALL       0.00   885.80     0  02:53           0        14.5       0.000
  3                    OUTFALL       0.00   506.14     0  03:10           0        2.92       0.000
  4                    OUTFALL       0.00   160.09     0  02:30           0       0.228       0.000
  5                    OUTFALL       0.00     0.00     0  00:00           0           0       0.000 ltr
  JK-storage           STORAGE       0.00   421.88     0  02:54           0        4.03     -18.051
  CC-storage           STORAGE       0.00   708.73     0  03:02           0         6.4       0.521
  XR-storage           STORAGE     357.32   357.32     0  02:56        7.35        7.95      -0.001
  
  
  **********************
  Node Surcharge Summary
  **********************
  
  Surcharging occurs when water rises above the top of the highest conduit.
  ---------------------------------------------------------------------
                                               Max. Height   Min. Depth
                                   Hours       Above Crown    Below Rim
  Node                 Type      Surcharged         Meters       Meters
  ---------------------------------------------------------------------
  WS02006109           JUNCTION        1.47          0.174        1.646
  WS02006110           JUNCTION        0.27          0.028        1.822
  WS02006112           JUNCTION        0.39          0.083        1.597
  WS02006231           JUNCTION        0.05          0.004        1.526
  WS02006232           JUNCTION        1.63          0.143        1.337
  WS02006234           JUNCTION        0.28          0.058        1.182
  WS02006235           JUNCTION        0.69          0.098        1.192
  WS02006238           JUNCTION        1.11          0.116        1.314
  WS02006240           JUNCTION        0.23          0.046        1.344
  WS02006242           JUNCTION        0.64          0.091        0.729
  WS02006243           JUNCTION        0.01          0.002        0.768
  WS02006239           JUNCTION        0.34          0.066        1.224
  WS02006252           JUNCTION        1.85          0.188        0.912
  WS02006228           JUNCTION        1.29          0.209        1.991
  YS02001751           JUNCTION        1.81          1.200        0.000
  YS02001754           JUNCTION        4.25          1.042        0.108
  YS02001762           JUNCTION        5.32          0.785        0.365
  YS02001765           JUNCTION        5.27          0.796        0.304
  YS02001767           JUNCTION        5.19          0.802        0.228
  YS02001770           JUNCTION        5.09          0.866        0.054
  YS02001774           JUNCTION        5.31          0.980        0.070
  YS02001779           JUNCTION        4.08          0.680        0.000
  YS02001759           JUNCTION        5.35          0.816        0.394
  YS02001619           JUNCTION        0.63          0.111        0.499
  YS02001629           JUNCTION        0.63          0.074        0.396
  YS02001641           JUNCTION        5.30          0.564        0.536
  YS02001644           JUNCTION        5.30          0.582        0.338
  YS02001652           JUNCTION        4.46          0.726        0.404
  YS02001655           JUNCTION        2.22          0.929        0.271
  YS02001622           JUNCTION        1.32          0.127        0.493
  YS02001633           JUNCTION        5.25          0.529        0.531
  YS02001649           JUNCTION        5.32          0.684        0.366
  YS02001757           JUNCTION        5.43          0.898        0.312
  YS02001625           JUNCTION        4.91          0.403        0.377
  YS02163301           JUNCTION        5.15          0.485        0.545
  YS02163601           JUNCTION        5.33          0.597        0.483
  YS02164001           JUNCTION        5.27          0.540        0.560
  YS02001647           JUNCTION        4.71          0.487        0.413
  
  
  *********************
  Node Flooding Summary
  *********************
  
  Flooding refers to all water that overflows a node, whether it ponds or not.
  --------------------------------------------------------------------------
                                                             Total   Maximum
                                 Maximum   Time of Max       Flood    Ponded
                        Hours       Rate    Occurrence      Volume     Depth
  Node                 Flooded       LPS   days hr:min    10^6 ltr    Meters
  --------------------------------------------------------------------------
  YS02001751              0.01    163.99      0  04:14       0.000     0.000
  YS02001779              0.01      6.83      0  04:14       0.000     0.000
  XR-storage              0.85    161.89      0  05:40       0.247     0.000
  
  
  **********************
  Storage Volume Summary
  **********************
  
  --------------------------------------------------------------------------------------------------
                         Average     Avg  Evap Exfil       Maximum     Max    Time of Max    Maximum
                          Volume    Pcnt  Pcnt  Pcnt        Volume    Pcnt     Occurrence    Outflow
  Storage Unit           1000 m3    Full  Loss  Loss       1000 m3    Full    days hr:min        LPS
  --------------------------------------------------------------------------------------------------
  JK-storage               0.024       8     0     0         0.157      54       0  03:37     600.00
  CC-storage               1.747      11     0     0         2.669      17       0  05:45     399.98
  XR-storage               0.745      80     0     0         0.926     100       0  05:32     380.00
  
  
  ***********************
  Outfall Loading Summary
  ***********************
  
  -----------------------------------------------------------
                         Flow       Avg       Max       Total
                         Freq      Flow      Flow      Volume
  Outfall Node           Pcnt       LPS       LPS    10^6 ltr
  -----------------------------------------------------------
  WSC                  100.00    596.02    885.80      14.489
  3                     81.84    180.58    506.14       2.924
  4                     29.83     38.41    160.09       0.228
  5                      0.00      0.00      0.00       0.000
  -----------------------------------------------------------
  System                52.92    815.01   1241.05      17.641
  
  
  ********************
  Link Flow Summary
  ********************
  
  -----------------------------------------------------------------------------
                                 Maximum  Time of Max   Maximum    Max/    Max/
                                  |Flow|   Occurrence   |Veloc|    Full    Full
  Link                 Type          LPS  days hr:min     m/sec    Flow   Depth
  -----------------------------------------------------------------------------
  WS02003066WSF200     CONDUIT    557.29     0  02:35      2.73    0.09    0.24
  WS02006287WS02006284 CONDUIT    254.15     0  02:16      1.74    0.12    0.24
  WS02006284WS02006280 CONDUIT    254.25     0  02:17      1.98    0.11    0.22
  WS02006280WS02006229 CONDUIT    254.26     0  02:17      3.19    0.05    0.16
  WS02006229WS02006228 CONDUIT    558.35     0  02:27      1.11    1.85    1.00
  WS02006256WS02006235 CONDUIT    154.49     0  02:10      2.23    1.64    1.00
  WS02006253WS02006251 CONDUIT     52.60     0  02:19      0.53    0.16    0.96
  WS02006252WS02006251 CONDUIT    400.15     0  05:50      3.18    1.47    1.00
  WS02006251WS02006249 CONDUIT    436.10     0  02:30      1.18    1.26    0.92
  WS02006249WS02006248 CONDUIT    352.67     0  05:50      1.16    1.93    0.88
  WS02006248WS02006247 CONDUIT    348.67     0  05:51      1.13    0.76    0.93
  WS02006247WS02006245 CONDUIT    344.58     0  05:51      1.09    2.73    0.97
  WS02006245WS02006243 CONDUIT    340.55     0  05:51      1.12    1.01    0.99
  WS02006243WS02006242 CONDUIT    334.57     0  05:51      1.01    0.71    1.00
  WS02006242WS02006240 CONDUIT    323.38     0  05:51      0.96    1.28    1.00
  WS02006240WS02006239 CONDUIT    314.16     0  05:52      0.99    0.99    1.00
  WS02006239WS02006238 CONDUIT    309.13     0  07:22      0.88    0.99    1.00
  WS02006238WS02006235 CONDUIT    309.60     0  07:30      0.85    0.69    1.00
  WS02006235WS02006234 CONDUIT    387.34     0  05:11      1.03    4.09    1.00
  WS02006234WS02006232 CONDUIT    385.99     0  05:12      1.01    0.78    1.00
  WS02006232WS02006231 CONDUIT    385.81     0  05:12      1.05    0.81    1.00
  WS02006231WS02006230 CONDUIT    383.57     0  05:12      1.36    5.82    0.98
  WS02006230WS02006229 CONDUIT    393.46     0  03:43      1.02    8.76    1.00
  WS02006228WS02006109 CONDUIT    558.35     0  02:27      1.11    2.44    1.00
  WS02006116WS02004401 CONDUIT    561.79     0  02:30      0.80    0.77    0.86
  WS02006115WS02006116 CONDUIT    563.50     0  02:29      0.92    0.72    0.78
  WS02006113WS02006111 CONDUIT    583.67     0  02:28      2.50    0.70    0.47
  WS02006112WS02006115 CONDUIT    571.81     0  02:32      0.78    0.34    0.88
  WS02006111WS02006112 CONDUIT    565.84     0  02:28      1.56    0.27    0.68
  WS02006110WS02006113 CONDUIT    560.02     0  02:28      1.31    0.51    0.79
  WS02006109WS02006110 CONDUIT    559.57     0  02:27      1.11    1.08    1.00
  WS02004411WS02004412 CONDUIT    557.50     0  02:34      0.94    0.79    0.71
  WS02004401WS02004402 CONDUIT    561.13     0  02:30      0.83    0.67    0.88
  WS02004413WS02003067 CONDUIT    557.25     0  02:35      1.13    0.24    0.60
  WS02004412WS02004413 CONDUIT    557.31     0  02:35      0.84    0.37    0.79
  WS02004410WS02004411 CONDUIT    557.79     0  02:33      0.95    0.76    0.70
  WS02004409WS02004410 CONDUIT    558.51     0  02:33      0.98    0.72    0.69
  WS02004407WS02004409 CONDUIT    559.90     0  02:32      1.48    0.20    0.49
  WS02004406WS02004407 CONDUIT    560.22     0  02:31      1.06    0.25    0.64
  WS02004405WS02004406 CONDUIT    560.67     0  02:31      0.77    1.11    0.97
  WS02004404WS02004405 CONDUIT    560.48     0  02:31      0.97    5.49    0.97
  WS02004403WS02004404 CONDUIT    560.34     0  02:31      0.85    0.41    0.94
  WS02004402WS02004403 CONDUIT    560.74     0  02:30      0.85    0.81    0.90
  WS02004139WS02001211 CONDUIT    380.94     0  04:39      0.81    0.48    0.59
  WS02004138WS02004139 CONDUIT    380.00     0  04:32      3.34    0.08    0.43
  WS02003067WS02003066 CONDUIT    557.27     0  02:35      1.23    0.18    0.42
  WS02001213WS02003059 CONDUIT    390.62     0  04:38      0.78    0.64    0.76
  WS02001212WS02001213 CONDUIT    389.57     0  04:38      1.28    0.60    0.46
  WS02001211WS02001212 CONDUIT    388.98     0  04:39      0.75    0.30    0.64
  WS02003072WS02003073 CONDUIT    884.29     0  02:53      1.69    1.91    0.47
  WS02003069WS02003072 CONDUIT    884.52     0  02:52      1.59    0.43    0.49
  WS02003060WS02003069 CONDUIT    884.55     0  02:52      1.84    0.35    0.44
  WS02003059WS02003060 CONDUIT    392.04     0  04:37      0.90    0.26    0.65
  HS02004901HS02004770 CONDUIT     12.91     0  02:13      0.05    0.05    0.35
  HS02004876HS02004881 CONDUIT     43.90     0  02:17      0.67    0.47    0.09
  HS02004870HS02004876 CONDUIT     34.92     0  02:17      0.46    0.02    0.11
  HS02004842HS02004848 CONDUIT      6.44     0  02:29      0.03    0.00    0.28
  HS02004837HS02004842 CONDUIT      6.66     0  02:30      0.42    0.00    0.30
  HS02004830HS02004837 CONDUIT     27.63     0  02:17      0.47    0.03    0.08
  HS02004824HS02004830 CONDUIT     27.78     0  02:17      0.51    0.04    0.08
  HS02004817HS02004824 CONDUIT     46.16     0  02:20      0.17    0.02    0.42
  HS02004770HS02004777 CONDUIT     65.68     0  02:13      0.26    0.12    0.36
  HS02004799HS02004480 CONDUIT    162.16     0  02:15      0.66    0.20    0.35
  HS02004792HS02004799 CONDUIT    148.18     0  02:14      0.76    0.09    0.28
  HS02004788HS02004792 CONDUIT     86.18     0  02:15      0.90    0.06    0.14
  HS02004785HS02004788 CONDUIT     65.30     0  02:15      0.57    0.49    0.16
  HS02004777HS02004785 CONDUIT     65.24     0  02:14      0.32    0.08    0.30
  HS02004480HS02004478 CONDUIT    191.50     0  02:15      1.05    0.81    0.26
  HS02004479HS02004480 CONDUIT     30.03     0  02:17      0.15    0.03    0.34
  HS02004862HS02004870 CONDUIT     25.61     0  02:18      0.51    0.03    0.07
  HS02004848HS02004852 CONDUIT     10.62     0  02:17      0.34    0.01    0.04
  HS02004856HS02004862 CONDUIT     17.50     0  02:17      0.38    0.02    0.07
  HS02004852HS02004856 CONDUIT     10.59     0  02:18      0.15    0.01    0.10
  HS02004802HS02004478 CONDUIT     64.70     0  02:20      0.34    0.06    0.28
  HS02004478WS02006287 CONDUIT    254.11     0  02:16      1.44    0.07    0.20
  HS02004817HS02004807 CONDUIT     47.48     0  02:22      0.13    0.03    0.54
  HS02004807HS02004802 CONDUIT     64.20     0  02:19      0.28    0.12    0.33
  YS02001759YS02001757 CONDUIT    253.30     0  02:40      0.32    0.18    1.00
  YS02001762YS02001759 CONDUIT    131.89     0  02:40      0.18    0.15    1.00
  YS02001765YS02001762 CONDUIT    131.24     0  02:47      0.23    0.12    1.00
  YS02001770YS02001767 CONDUIT    137.53     0  02:40      0.32    0.54    1.00
  YS02001774YS02001770 CONDUIT     49.50     0  02:13      0.14    0.03    1.00
  YS02001779YS02001774 CONDUIT     44.06     0  03:51      0.08    0.02    1.00
  YS02001649YS02001757 CONDUIT    401.43     0  02:59      0.51    0.24    1.00
  YS02001767YS02001765 CONDUIT    139.29     0  02:34      0.26    0.18    1.00
  YS02006561YS02001783 CONDUIT    421.40     0  02:52      1.92    0.22    0.45
  YS02001783YS02001784 CONDUIT    420.81     0  02:53      1.36    0.58    0.59
  YS02001784YS02001785 CONDUIT    421.65     0  02:53      1.46    0.98    0.56
  YS02001788YS02001790 CONDUIT    422.04     0  02:54      2.02    0.31    0.43
  YS02001790YS02001791 CONDUIT    421.83     0  02:54      2.32    0.46    0.39
  YS02001791YS02001793 CONDUIT    421.89     0  02:54      4.80    0.18    0.24
  YS02001910YS02001907 CONDUIT    132.53     0  03:04      0.49    0.07    0.81
  YS02001786YS02001788 CONDUIT    421.70     0  02:53      1.91    0.81    0.45
  YS02001915YS02001910 CONDUIT    131.78     0  03:01      0.45    0.07    0.60
  YS02001918YS02001915 CONDUIT     45.87     0  03:04      0.44    0.03    0.32
  YS02001923YS02001920 CONDUIT     41.53     0  03:01      0.50    0.02    0.16
  YS02001926YS02001923 CONDUIT     41.49     0  03:01      0.55    0.06    0.15
  YS02001929YS02001926 CONDUIT     41.52     0  03:01      0.59    0.02    0.15
  YS02001920YS02001918 CONDUIT     44.54     0  03:03      0.51    0.04    0.19
  YS02001629YS02163301 CONDUIT    115.12     0  02:37      0.15    0.14    1.00
  YS02001619YS02001622 CONDUIT    103.20     0  04:37      0.70    0.15    1.00
  YS02001622YS02001625 CONDUIT    146.65     0  04:30      0.28    0.08    1.00
  YS02001625YS02001629 CONDUIT    147.00     0  04:30      0.27    0.07    1.00
  YS02163301YS02001633 CONDUIT     95.20     0  02:37      0.12    0.09    1.00
  YS02163601YS02164001 CONDUIT    184.78     0  02:59      0.24    0.16    1.00
  YS02164001YS02001641 CONDUIT    183.35     0  02:59      0.23    0.25    1.00
  YS02001641YS02001644 CONDUIT    183.17     0  02:39      0.23    0.59    1.00
  YS02001647YS02001649 CONDUIT    299.00     0  02:58      0.38    0.16    1.00
  YS02006553YS02006556 CONDUIT    287.39     0  02:53      0.39    0.25    0.89
  YS02006556YS02006558 CONDUIT    288.29     0  02:53      0.38    0.23    0.92
  YSB6556YSB1171       CONDUIT     16.29     0  02:18      0.07    0.02    0.61
  YS02001907YS02006553 CONDUIT    288.26     0  02:52      0.32    0.34    1.00
  YS02006558YS02006561 CONDUIT    442.70     0  02:53      2.61    0.98    0.58
  YS02001633YS02163601 CONDUIT    185.00     0  02:59      0.24    0.19    1.00
  YS02001644YS02001647 CONDUIT    273.61     0  02:59      0.35    0.16    1.00
  YS02001745YS02001748 CONDUIT    184.84     0  04:09      1.48    0.07    0.63
  YS02001748YS02001751 CONDUIT    360.73     0  03:53      1.15    0.18    0.96
  YS02001751YS02001754 CONDUIT    150.10     0  03:58      1.01    0.07    1.00
  YS02001754YS02001757 CONDUIT    157.21     0  03:58      0.33    0.06    1.00
  YS02001882YS02001884 CONDUIT      4.75     0  02:05      0.06    0.01    0.54
  YS02001884YS02001887 CONDUIT     13.70     0  02:05      0.06    0.02    0.63
  YS02001890YS02001895 CONDUIT    157.86     0  02:46      0.32    0.07    0.60
  YS02001895YS02001898 CONDUIT    157.69     0  02:46      0.50    0.27    0.46
  YS02001898YS02001901 CONDUIT    157.36     0  02:45      0.37    0.10    0.54
  YS02001901YS02001904 CONDUIT    157.28     0  02:45      0.33    0.24    0.59
  YS02001904YS02001907 CONDUIT    157.46     0  02:53      0.25    0.06    0.75
  YS02001887YS02001890 CONDUIT    158.11     0  02:46      0.28    0.27    0.69
  YS02001652YS02001649 CONDUIT    149.18     0  03:46      0.34    0.07    1.00
  YS02001655YS02001652 CONDUIT    166.25     0  02:56      1.08    0.08    1.00
  YS02001658YS02001655 CONDUIT    314.58     0  03:44      1.33    0.13    0.93
  YS02001661YS02001658 CONDUIT    279.12     0  04:03      1.55    0.11    0.66
  YS02001664YS02001661 CONDUIT    112.77     0  02:44      1.26    0.04    0.32
  YSB1154YSB6556       CONDUIT     15.99     0  02:16      0.19    0.03    0.50
  YSB1174YSB1171       CONDUIT     14.68     0  02:10      0.06    0.02    0.62
  YSB1171HS02004479    CONDUIT     29.76     0  02:16      0.54    0.02    0.48
  HS02004881HS02006253 CONDUIT     49.08     0  02:16      1.82    0.01    0.27
  YS02001793JiankangQianchi CONDUIT    421.88     0  02:54     14.29    0.03    0.56
  YS02001757CaochengTiaoxuchi CONDUIT    708.73     0  03:02      1.59    0.31    0.98
  WSF200WS02003060     CONDUIT    557.45     0  02:35      1.78    0.12    0.34
  1                    CONDUIT    885.80     0  02:53      3.22    0.31    0.38
  2                    CONDUIT    160.09     0  02:30      5.51    0.38    0.43
  3                    CONDUIT    506.14     0  03:10      9.82    0.81    0.69
  4                    CONDUIT      0.00     0  00:00      0.00    0.00    0.00
  CC-Pump-1            PUMP       200.00     0  02:18              1.00
  CC-Pump-2            PUMP       200.00     0  03:00              1.00
  JK-Pump-1            PUMP       300.00     0  00:20              1.00
  JK-Pump-2            PUMP       300.00     0  02:23              1.00
  XR-Pump-1            PUMP        95.00     0  00:00              1.00
  XR-Pump-2            PUMP        95.00     0  00:40              1.00
  XR-Pump-3            PUMP        95.00     0  00:00              1.00
  XR-Pump-4            PUMP        95.00     0  00:00              1.00
  
  
  ***************************
  Flow Classification Summary
  ***************************
  
  -------------------------------------------------------------------------------------
                      Adjusted    ---------- Fraction of Time in Flow Class ---------- 
                       /Actual         Up    Down  Sub   Sup   Up    Down  Norm  Inlet 
  Conduit               Length    Dry  Dry   Dry   Crit  Crit  Crit  Crit  Ltd   Ctrl  
  -------------------------------------------------------------------------------------
  WS02003066WSF200        1.00   0.05  0.00  0.00  0.00  0.95  0.00  0.00  0.75  0.00
  WS02006287WS02006284    1.00   0.04  0.01  0.00  0.68  0.27  0.00  0.00  0.77  0.00
  WS02006284WS02006280    1.00   0.04  0.00  0.00  0.00  0.00  0.00  0.96  0.00  0.00
  WS02006280WS02006229    1.00   0.04  0.00  0.00  0.00  0.00  0.00  0.96  0.00  0.00
  WS02006229WS02006228    1.00   0.00  0.00  0.00  1.00  0.00  0.00  0.00  0.00  0.00
  WS02006256WS02006235    1.00   0.00  0.00  0.00  1.00  0.00  0.00  0.00  0.00  0.00
  WS02006253WS02006251    1.00   0.02  0.01  0.00  0.96  0.00  0.00  0.00  0.00  0.00
  WS02006252WS02006251    1.00   0.08  0.00  0.00  0.00  0.00  0.92  0.00  0.00  0.00
  WS02006251WS02006249    1.00   0.00  0.00  0.00  1.00  0.00  0.00  0.00  0.26  0.00
  WS02006249WS02006248    1.00   0.00  0.00  0.00  0.91  0.00  0.08  0.00  0.00  0.00
  WS02006248WS02006247    1.00   0.00  0.00  0.00  0.98  0.00  0.00  0.02  0.17  0.00
  WS02006247WS02006245    1.00   0.00  0.00  0.00  0.98  0.00  0.00  0.01  0.00  0.00
  WS02006245WS02006243    1.00   0.01  0.00  0.00  0.95  0.00  0.00  0.04  0.01  0.00
  WS02006243WS02006242    1.00   0.01  0.00  0.00  0.99  0.00  0.00  0.00  0.22  0.00
  WS02006242WS02006240    1.00   0.01  0.00  0.00  0.99  0.00  0.00  0.00  0.00  0.00
  WS02006240WS02006239    1.00   0.00  0.00  0.00  0.96  0.00  0.00  0.03  0.01  0.00
  WS02006239WS02006238    1.00   0.00  0.00  0.00  1.00  0.00  0.00  0.00  0.00  0.00
  WS02006238WS02006235    1.00   0.00  0.00  0.00  1.00  0.00  0.00  0.00  0.00  0.00
  WS02006235WS02006234    1.00   0.00  0.00  0.00  0.96  0.00  0.03  0.00  0.00  0.00
  WS02006234WS02006232    1.00   0.00  0.00  0.00  1.00  0.00  0.00  0.00  0.04  0.00
  WS02006232WS02006231    1.00   0.00  0.00  0.00  0.99  0.00  0.00  0.00  0.00  0.00
  WS02006231WS02006230    1.00   0.01  0.00  0.00  0.57  0.00  0.43  0.00  0.00  0.00
  WS02006230WS02006229    1.00   0.00  0.00  0.00  0.99  0.00  0.00  0.01  0.01  0.00
  WS02006228WS02006109    1.00   0.00  0.00  0.00  1.00  0.00  0.00  0.00  0.00  0.00
  WS02006116WS02004401    1.00   0.02  0.00  0.00  0.98  0.00  0.00  0.00  0.00  0.00
  WS02006115WS02006116    1.00   0.02  0.00  0.00  0.97  0.00  0.00  0.01  0.00  0.00
  WS02006113WS02006111    1.00   0.01  0.00  0.00  0.00  0.99  0.00  0.00  0.11  0.00
  WS02006112WS02006115    1.00   0.02  0.01  0.00  0.97  0.00  0.00  0.00  0.00  0.00
  WS02006111WS02006112    1.00   0.02  0.00  0.00  0.98  0.00  0.00  0.00  0.95  0.00
  WS02006110WS02006113    1.00   0.00  0.01  0.00  0.99  0.00  0.00  0.00  0.00  0.00
  WS02006109WS02006110    1.00   0.00  0.00  0.00  1.00  0.00  0.00  0.00  0.00  0.00
  WS02004411WS02004412    1.00   0.03  0.00  0.00  0.97  0.00  0.00  0.00  0.00  0.00
  WS02004401WS02004402    1.00   0.03  0.00  0.00  0.97  0.00  0.00  0.00  0.00  0.00
  WS02004413WS02003067    1.00   0.04  0.01  0.00  0.00  0.00  0.96  0.00  0.00  0.00
  WS02004412WS02004413    1.00   0.03  0.00  0.00  0.97  0.00  0.00  0.00  0.01  0.00
  WS02004410WS02004411    1.00   0.03  0.00  0.00  0.97  0.00  0.00  0.00  0.01  0.00
  WS02004409WS02004410    1.00   0.03  0.00  0.00  0.97  0.00  0.00  0.00  0.03  0.00
  WS02004407WS02004409    1.00   0.03  0.00  0.00  0.96  0.00  0.00  0.00  0.91  0.00
  WS02004406WS02004407    1.00   0.00  0.03  0.00  0.97  0.00  0.00  0.00  0.00  0.00
  WS02004405WS02004406    1.00   0.00  0.00  0.00  1.00  0.00  0.00  0.00  0.03  0.00
  WS02004404WS02004405    1.00   0.00  0.00  0.00  1.00  0.00  0.00  0.00  0.00  0.00
  WS02004403WS02004404    1.00   0.00  0.03  0.00  0.97  0.00  0.00  0.00  0.00  0.00
  WS02004402WS02004403    1.00   0.03  0.00  0.00  0.97  0.00  0.00  0.00  0.00  0.00
  WS02004139WS02001211    1.00   0.00  0.00  0.00  1.00  0.00  0.00  0.00  0.00  0.00
  WS02004138WS02004139    1.00   0.00  0.00  0.00  1.00  0.00  0.00  0.00  1.00  0.00
  WS02003067WS02003066    1.00   0.04  0.00  0.00  0.95  0.00  0.00  0.00  0.00  0.00
  WS02001213WS02003059    1.00   0.00  0.00  0.00  1.00  0.00  0.00  0.00  0.00  0.00
  WS02001212WS02001213    1.00   0.00  0.00  0.00  0.82  0.00  0.18  0.00  0.00  0.00
  WS02001211WS02001212    1.00   0.00  0.00  0.00  1.00  0.00  0.00  0.00  0.00  0.00
  WS02003072WS02003073    1.00   0.00  0.00  0.00  0.00  0.00  0.00  1.00  0.00  0.00
  WS02003069WS02003072    1.00   0.00  0.00  0.00  1.00  0.00  0.00  0.00  0.27  0.00
  WS02003060WS02003069    1.00   0.00  0.00  0.00  1.00  0.00  0.00  0.00  0.15  0.00
  WS02003059WS02003060    1.00   0.00  0.00  0.00  1.00  0.00  0.00  0.00  0.01  0.00
  HS02004901HS02004770    1.00   0.04  0.00  0.00  0.96  0.00  0.00  0.00  0.02  0.00
  HS02004876HS02004881    1.00   0.00  0.00  0.00  1.00  0.00  0.00  0.00  0.00  0.00
  HS02004870HS02004876    1.00   0.00  0.00  0.00  1.00  0.00  0.00  0.00  0.95  0.00
  HS02004842HS02004848    1.00   0.00  0.04  0.00  0.96  0.00  0.00  0.00  0.67  0.00
  HS02004837HS02004842    1.00   0.00  0.00  0.00  1.00  0.00  0.00  0.00  0.11  0.00
  HS02004830HS02004837    1.00   0.00  0.00  0.00  1.00  0.00  0.00  0.00  0.99  0.00
  HS02004824HS02004830    1.00   0.00  0.00  0.00  1.00  0.00  0.00  0.00  0.00  0.00
  HS02004817HS02004824    1.00   0.00  0.00  0.00  1.00  0.00  0.00  0.00  1.00  0.00
  HS02004770HS02004777    1.00   0.00  0.04  0.00  0.96  0.00  0.00  0.00  0.07  0.00
  HS02004799HS02004480    1.00   0.00  0.01  0.00  0.95  0.00  0.04  0.00  0.00  0.00
  HS02004792HS02004799    1.00   0.00  0.00  0.00  1.00  0.00  0.00  0.00  0.98  0.00
  HS02004788HS02004792    1.00   0.00  0.00  0.00  1.00  0.00  0.00  0.00  0.98  0.00
  HS02004785HS02004788    1.00   0.00  0.00  0.00  1.00  0.00  0.00  0.00  0.00  0.00
  HS02004777HS02004785    1.00   0.00  0.00  0.00  1.00  0.00  0.00  0.00  0.20  0.00
  HS02004480HS02004478    1.00   0.04  0.00  0.00  0.72  0.00  0.00  0.23  0.00  0.00
  HS02004479HS02004480    1.00   0.01  0.00  0.00  0.99  0.00  0.00  0.00  0.16  0.00
  HS02004862HS02004870    1.00   0.00  0.00  0.00  1.00  0.00  0.00  0.00  0.06  0.00
  HS02004848HS02004852    1.00   0.04  0.00  0.00  0.96  0.00  0.00  0.00  0.71  0.00
  HS02004856HS02004862    1.00   0.00  0.06  0.00  0.94  0.00  0.00  0.00  0.75  0.00
  HS02004852HS02004856    1.00   0.04  0.01  0.00  0.95  0.00  0.00  0.00  0.83  0.00
  HS02004802HS02004478    1.00   0.04  0.00  0.00  0.95  0.00  0.00  0.00  0.01  0.00
  HS02004478WS02006287    1.00   0.05  0.00  0.00  0.84  0.11  0.00  0.00  0.75  0.00
  HS02004817HS02004807    1.00   0.00  0.04  0.00  0.96  0.00  0.00  0.00  0.00  0.00
  HS02004807HS02004802    1.00   0.04  0.00  0.00  0.96  0.00  0.00  0.00  0.01  0.00
  YS02001759YS02001757    1.00   0.00  0.00  0.00  1.00  0.00  0.00  0.00  0.17  0.00
  YS02001762YS02001759    1.00   0.00  0.00  0.00  1.00  0.00  0.00  0.00  0.04  0.00
  YS02001765YS02001762    1.00   0.00  0.00  0.00  1.00  0.00  0.00  0.00  0.22  0.00
  YS02001770YS02001767    1.00   0.00  0.00  0.00  1.00  0.00  0.00  0.00  0.00  0.00
  YS02001774YS02001770    1.00   0.00  0.05  0.00  0.95  0.00  0.00  0.00  0.06  0.00
  YS02001779YS02001774    1.00   0.00  0.00  0.00  1.00  0.00  0.00  0.00  0.26  0.00
  YS02001649YS02001757    1.00   0.00  0.00  0.00  1.00  0.00  0.00  0.00  0.19  0.00
  YS02001767YS02001765    1.00   0.00  0.00  0.00  1.00  0.00  0.00  0.00  0.01  0.00
  YS02006561YS02001783    1.00   0.06  0.00  0.00  0.00  0.94  0.00  0.00  0.63  0.00
  YS02001783YS02001784    1.00   0.00  0.06  0.00  0.94  0.00  0.00  0.00  0.00  0.00
  YS02001784YS02001785    1.00   0.00  0.00  0.00  1.00  0.00  0.00  0.00  0.25  0.00
  YS02001788YS02001790    1.00   0.00  0.00  0.00  0.07  0.93  0.00  0.00  0.71  0.00
  YS02001790YS02001791    1.00   0.00  0.00  0.00  0.00  1.00  0.00  0.00  0.61  0.00
  YS02001791YS02001793    1.00   0.00  0.00  0.00  0.00  1.00  0.00  0.00  0.00  0.00
  YS02001910YS02001907    1.00   0.00  0.00  0.00  0.99  0.00  0.00  0.00  0.13  0.00
  YS02001786YS02001788    1.00   0.00  0.00  0.00  0.07  0.93  0.00  0.00  0.00  0.00
  YS02001915YS02001910    1.00   0.00  0.00  0.00  1.00  0.00  0.00  0.00  0.24  0.00
  YS02001918YS02001915    1.00   0.00  0.00  0.00  1.00  0.00  0.00  0.00  0.71  0.00
  YS02001923YS02001920    1.00   0.00  0.00  0.00  1.00  0.00  0.00  0.00  1.00  0.00
  YS02001926YS02001923    1.00   0.00  0.03  0.00  0.00  0.00  0.97  0.00  0.00  0.00
  YS02001929YS02001926    1.00   0.00  0.04  0.00  0.96  0.00  0.00  0.00  0.87  0.00
  YS02001920YS02001918    1.00   0.00  0.00  0.00  1.00  0.00  0.00  0.00  0.00  0.00
  YS02001629YS02163301    1.00   0.06  0.00  0.00  0.94  0.00  0.00  0.00  0.00  0.00
  YS02001619YS02001622    1.00   0.04  0.00  0.00  0.96  0.00  0.00  0.00  0.00  0.00
  YS02001622YS02001625    1.00   0.04  0.00  0.00  0.96  0.00  0.00  0.00  0.12  0.00
  YS02001625YS02001629    1.00   0.04  0.02  0.00  0.92  0.00  0.02  0.00  0.00  0.00
  YS02163301YS02001633    1.00   0.00  0.06  0.00  0.94  0.00  0.00  0.00  0.00  0.00
  YS02163601YS02164001    1.00   0.00  0.03  0.00  0.97  0.00  0.00  0.00  0.00  0.00
  YS02164001YS02001641    1.00   0.00  0.03  0.00  0.97  0.00  0.00  0.00  0.07  0.00
  YS02001641YS02001644    1.00   0.00  0.00  0.00  1.00  0.00  0.00  0.00  0.00  0.00
  YS02001647YS02001649    1.00   0.00  0.06  0.00  0.94  0.00  0.00  0.00  0.01  0.00
  YS02006553YS02006556    1.00   0.00  0.00  0.00  1.00  0.00  0.00  0.00  0.03  0.00
  YS02006556YS02006558    1.00   0.00  0.00  0.00  1.00  0.00  0.00  0.00  0.00  0.00
  YSB6556YSB1171          1.00   0.01  0.03  0.00  0.96  0.00  0.00  0.00  0.00  0.00
  YS02001907YS02006553    1.00   0.00  0.00  0.00  1.00  0.00  0.00  0.00  0.00  0.00
  YS02006558YS02006561    1.00   0.06  0.00  0.00  0.00  0.94  0.00  0.00  0.64  0.00
  YS02001633YS02163601    1.00   0.00  0.00  0.00  1.00  0.00  0.00  0.00  0.19  0.00
  YS02001644YS02001647    1.00   0.00  0.06  0.00  0.94  0.00  0.00  0.00  0.00  0.00
  YS02001745YS02001748    1.00   0.00  0.00  0.00  0.88  0.01  0.00  0.11  0.14  0.00
  YS02001748YS02001751    1.00   0.00  0.00  0.00  0.97  0.03  0.00  0.00  0.23  0.00
  YS02001751YS02001754    1.00   0.00  0.00  0.00  0.93  0.00  0.00  0.07  0.01  0.00
  YS02001754YS02001757    1.00   0.00  0.00  0.00  1.00  0.00  0.00  0.00  0.26  0.00
  YS02001882YS02001884    1.00   0.05  0.00  0.00  0.94  0.00  0.00  0.00  0.00  0.00
  YS02001884YS02001887    1.00   0.03  0.01  0.00  0.96  0.00  0.00  0.00  0.00  0.00
  YS02001890YS02001895    1.00   0.00  0.06  0.00  0.94  0.00  0.00  0.00  0.00  0.00
  YS02001895YS02001898    1.00   0.06  0.00  0.00  0.93  0.00  0.01  0.00  0.00  0.00
  YS02001898YS02001901    1.00   0.06  0.00  0.00  0.94  0.00  0.00  0.00  0.02  0.00
  YS02001901YS02001904    1.00   0.06  0.00  0.00  0.94  0.00  0.00  0.00  0.00  0.00
  YS02001904YS02001907    1.00   0.00  0.06  0.00  0.94  0.00  0.00  0.00  0.00  0.00
  YS02001887YS02001890    1.00   0.00  0.00  0.00  0.99  0.00  0.01  0.00  0.00  0.00
  YS02001652YS02001649    1.00   0.00  0.00  0.00  1.00  0.00  0.00  0.00  0.25  0.00
  YS02001655YS02001652    1.00   0.00  0.00  0.00  0.93  0.00  0.00  0.07  0.02  0.00
  YS02001658YS02001655    1.00   0.00  0.05  0.00  0.92  0.03  0.00  0.00  0.09  0.00
  YS02001661YS02001658    1.00   0.05  0.00  0.00  0.87  0.08  0.00  0.00  0.15  0.00
  YS02001664YS02001661    1.00   0.04  0.00  0.00  0.75  0.21  0.00  0.00  0.86  0.00
  YSB1154YSB6556          1.00   0.04  0.00  0.00  0.96  0.00  0.00  0.00  0.02  0.00
  YSB1174YSB1171          1.00   0.02  0.01  0.00  0.96  0.00  0.00  0.00  0.00  0.00
  YSB1171HS02004479       1.00   0.01  0.00  0.00  0.97  0.00  0.00  0.01  0.13  0.00
  HS02004881HS02006253    1.00   0.02  0.00  0.00  0.79  0.02  0.00  0.17  0.60  0.00
  YS02001793JiankangQianchi    1.00   0.00  0.00  0.00  0.27  0.73  0.00  0.00  0.33  0.00
  YS02001757CaochengTiaoxuchi    1.00   0.00  0.08  0.00  0.92  0.00  0.00  0.00  0.00  0.00
  WSF200WS02003060        1.00   0.00  0.05  0.00  0.85  0.10  0.00  0.00  0.26  0.00
  1                       1.00   0.00  0.00  0.00  0.00  1.00  0.00  0.00  0.35  0.00
  2                       1.00   0.70  0.00  0.00  0.00  0.30  0.00  0.00  0.09  0.00
  3                       1.00   0.18  0.00  0.00  0.00  0.82  0.00  0.00  0.30  0.00
  4                       1.00   1.00  0.00  0.00  0.00  0.00  0.00  0.00  0.00  0.00
  
  
  *************************
  Conduit Surcharge Summary
  *************************
  
  ----------------------------------------------------------------------------
                                                           Hours        Hours 
                         --------- Hours Full --------   Above Full   Capacity
  Conduit                Both Ends  Upstream  Dnstream   Normal Flow   Limited
  ----------------------------------------------------------------------------
  WS02006229WS02006228        1.29      1.62      1.29      4.38         1.29
  WS02006256WS02006235        5.78      5.78      7.28      2.65         0.01
  WS02006252WS02006251        0.66      0.66      1.85      1.54         0.01
  WS02006251WS02006249        0.01      0.01      0.01      0.69         0.01
  WS02006249WS02006248        0.01      0.01      0.01      4.30         0.01
  WS02006247WS02006245        0.01      0.01      0.01      4.74         0.01
  WS02006245WS02006243        0.01      0.01      0.01      0.02         0.01
  WS02006243WS02006242        0.07      0.07      0.63      0.01         0.01
  WS02006242WS02006240        0.23      0.23      1.10      1.83         0.01
  WS02006240WS02006239        0.28      0.28      0.34      0.01         0.01
  WS02006239WS02006238        0.97      0.97      1.11      0.01         0.01
  WS02006238WS02006235        0.93      0.93      1.49      0.01         0.01
  WS02006235WS02006234        0.28      0.28      0.69      5.81         0.01
  WS02006234WS02006232        0.40      0.40      1.63      0.01         0.01
  WS02006232WS02006231        0.05      0.05      1.63      0.01         0.01
  WS02006231WS02006230        0.01      0.01      0.11      5.81         0.01
  WS02006230WS02006229        2.76      3.77      2.76      5.91         2.76
  WS02006228WS02006109        1.47      2.20      1.47      5.22         1.47
  WS02006112WS02006115        0.01      0.01      0.39      0.01         0.01
  WS02006111WS02006112        0.01      0.01      4.70      0.01         0.01
  WS02006110WS02006113        0.01      0.01      1.92      0.01         0.01
  WS02006109WS02006110        0.27      0.27      2.21      0.27         0.01
  WS02004405WS02004406        0.01      0.01      0.01      0.33         0.01
  WS02004404WS02004405        0.01      0.01      0.01      5.65         0.01
  WS02003072WS02003073        0.01      0.01      0.01      4.95         0.01
  YS02001759YS02001757        5.35      5.35      5.43      0.01         0.01
  YS02001762YS02001759        5.32      5.32      5.35      0.01         0.01
  YS02001765YS02001762        5.27      5.27      5.32      0.01         0.01
  YS02001770YS02001767        5.17      5.18      5.19      0.01         0.69
  YS02001774YS02001770        5.09      5.09      5.31      0.01         0.01
  YS02001779YS02001774        4.08      4.08      5.31      0.01         0.01
  YS02001649YS02001757        5.32      5.32      5.43      0.01         0.01
  YS02001767YS02001765        5.19      5.19      5.27      0.01         0.01
  YS02001629YS02163301        5.07      5.07      5.15      0.01         0.01
  YS02001619YS02001622        0.63      0.63      1.32      0.01         0.03
  YS02001622YS02001625        1.32      1.32      4.91      0.01         0.01
  YS02001625YS02001629        0.64      0.64      4.91      0.01         0.01
  YS02163301YS02001633        5.15      5.15      5.27      0.01         0.01
  YS02163601YS02164001        5.27      5.27      5.33      0.01         0.01
  YS02164001YS02001641        5.27      5.27      5.30      0.01         0.01
  YS02001641YS02001644        5.30      5.30      5.30      0.01         0.51
  YS02001647YS02001649        4.71      4.71      5.32      0.01         0.01
  YS02001907YS02006553        0.01      0.01      0.64      0.01         0.01
  YS02001633YS02163601        5.25      5.25      5.33      0.01         0.01
  YS02001644YS02001647        4.71      4.71      5.30      0.01         0.01
  YS02001748YS02001751        0.01      0.01      1.80      0.01         0.01
  YS02001751YS02001754        1.80      1.80      4.25      0.01         0.01
  YS02001754YS02001757        4.62      4.62      5.43      0.01         0.01
  YS02001652YS02001649        4.85      4.85      5.32      0.01         0.01
  YS02001655YS02001652        2.21      2.21      4.46      0.01         0.01
  YS02001658YS02001655        0.01      0.01      2.21      0.01         0.01
  YS02001793JiankangQianchi        0.01      0.01      1.25      0.01         0.01
  YS02001757CaochengTiaoxuchi        0.01      0.01      5.43      0.01         0.01
  
  
  ***************
  Pumping Summary
  ***************
  
  ---------------------------------------------------------------------------------------------------------
                                                  Min       Avg       Max     Total     Power    % Time Off
                        Percent   Number of      Flow      Flow      Flow    Volume     Usage    Pump Curve
  Pump                 Utilized   Start-Ups       LPS       LPS       LPS  10^6 ltr     Kw-hr    Low   High
  ---------------------------------------------------------------------------------------------------------
  CC-Pump-1               62.90           5      0.00    147.19    200.00     2.560      6.76    0.0   12.1
  CC-Pump-2               50.13           6      0.00    130.73    200.00     1.811      4.85    0.0   14.0
  JK-Pump-1               82.98           5      0.00    151.15    300.00     2.740     47.56    0.0    0.0
  JK-Pump-2               70.20           4      0.00    150.82    300.00     2.176     40.72    0.0    0.0
  XR-Pump-1               93.61           7      0.00     71.68     95.00     1.881     19.64    0.0    0.0
  XR-Pump-2               80.84           5      0.00     71.85     95.00     1.625     15.00    0.0    0.0
  XR-Pump-3               91.48           8      0.00     71.06     95.00     1.881     19.26    0.0    0.0
  XR-Pump-4               78.71           6      0.00     70.74     95.00     1.539     16.19    0.0    0.0
  

  Analysis begun on:  Fri Dec 24 14:49:49 2021
  Analysis ended on:  Fri Dec 24 14:49:53 2021
  Total elapsed time: 00:00:04