
  EPA STORM WATER MANAGEMENT MODEL - VERSION 5.1 (Build 5.3.0.dev0)
  --------------------------------------------------------------

  WARNING 04: minimum elevation drop used for Conduit WS02004404WS02004405
  WARNING 03: negative offset ignored for Link YS02001904YS02001907
  
  *********************************************************
  NOTE: The summary statistics displayed in this report are
  based on results found at every computational time step,  
  not just on results from each reporting time step.
  *********************************************************
  
  ****************
  Analysis Options
  ****************
  Flow Units ............... LPS
  Process Models:
    Rainfall/Runoff ........ YES
    RDII ................... NO
    Snowmelt ............... NO
    Groundwater ............ NO
    Flow Routing ........... YES
    Ponding Allowed ........ NO
    Water Quality .......... NO
  Infiltration Method ...... HORTON
  Flow Routing Method ...... DYNWAVE
  Surcharge Method ......... EXTRAN
  Starting Date ............ 08/28/2015 08:00:00
  Ending Date .............. 08/28/2015 15:50:00
  Antecedent Dry Days ...... 8.0
  Report Time Step ......... 00:01:00
  Wet Time Step ............ 00:01:00
  Dry Time Step ............ 00:01:00
  Routing Time Step ........ 5.00 sec
  Variable Time Step ....... YES
  Maximum Trials ........... 8
  Number of Threads ........ 4
  Head Tolerance ........... 0.001500 m
  
  
  **************************        Volume         Depth
  Runoff Quantity Continuity     hectare-m            mm
  **************************     ---------       -------
  Total Precipitation ......         2.605         5.704
  Evaporation Loss .........         0.000         0.000
  Infiltration Loss ........         0.653         1.430
  Surface Runoff ...........         1.076         2.356
  Final Storage ............         0.876         1.919
  Continuity Error (%) .....        -0.018
  
  
  **************************        Volume        Volume
  Flow Routing Continuity        hectare-m      10^6 ltr
  **************************     ---------     ---------
  Dry Weather Inflow .......         0.616         6.165
  Wet Weather Inflow .......         1.075        10.754
  Groundwater Inflow .......         0.000         0.000
  RDII Inflow ..............         0.000         0.000
  External Inflow ..........         0.102         1.024
  External Outflow .........         1.741        17.412
  Flooding Loss ............         0.026         0.261
  Evaporation Loss .........         0.000         0.000
  Exfiltration Loss ........         0.000         0.000
  Initial Stored Volume ....         0.076         0.761
  Final Stored Volume ......         0.246         2.455
  Continuity Error (%) .....        -7.619
  
  
  *************************
  Highest Continuity Errors
  *************************
  Node JK-storage (-42.99%)
  Node HS02004842 (29.23%)
  Node YS02001884 (23.52%)
  Node YSB1171 (7.25%)
  Node YS02001774 (6.87%)
  
  
  ***************************
  Time-Step Critical Elements
  ***************************
  Link WS02006252WS02006251 (58.23%)
  Link 3 (28.07%)
  Link WS02006238WS02006235 (6.29%)
  Link WS02006280WS02006229 (2.05%)
  Link WS02006229WS02006228 (1.23%)
  
  
  ********************************
  Highest Flow Instability Indexes
  ********************************
  Link WS02006113WS02006111 (37)
  Link WS02006111WS02006112 (26)
  Link YS02001652YS02001649 (3)
  Link YS02001649YS02001757 (3)
  Link YS02001754YS02001757 (3)
  
  
  *************************
  Routing Time Step Summary
  *************************
  Minimum Time Step           :     0.50 sec
  Average Time Step           :     0.84 sec
  Maximum Time Step           :     5.00 sec
  Percent in Steady State     :    -0.00
  Average Iterations per Step :     2.14
  Percent Not Converging      :     1.65
  
  
  ***************************
  Subcatchment Runoff Summary
  ***************************
  
  ------------------------------------------------------------------------------------------------------------------------------
                            Total      Total      Total      Total     Imperv       Perv      Total       Total     Peak  Runoff
                           Precip      Runon       Evap      Infil     Runoff     Runoff     Runoff      Runoff   Runoff   Coeff
  Subcatchment                 mm         mm         mm         mm         mm         mm         mm    10^6 ltr      LPS
  ------------------------------------------------------------------------------------------------------------------------------
  sub0                       5.70       0.00       0.00       0.40       4.04       0.00       4.04        0.00     1.40   0.708
  sub1                       5.70       0.00       0.00       0.63       3.82       0.00       3.82        0.03     7.17   0.670
  sub2                       5.70       0.00       0.00       2.11       2.69       0.00       2.69        0.03     6.32   0.471
  sub3                       5.70       0.00       0.00       2.11       2.65       0.00       2.65        0.06    12.95   0.465
  sub4                       5.70       0.00       0.00       0.63       3.68       0.00       3.68        0.08    14.48   0.646
  sub5                       5.70       0.00       0.00       0.40       3.99       0.00       3.99        0.05    12.76   0.700
  sub7                       5.70       0.00       0.00       0.51       3.94       0.00       3.94        0.01     4.53   0.690
  sub8                       5.70       0.00       0.00       0.51       3.93       0.00       3.93        0.03     7.98   0.688
  sub9                       5.70       0.00       0.00       0.51       3.93       0.00       3.93        0.02     5.91   0.688
  sub10                      5.70       0.00       0.00       0.46       3.96       0.00       3.96        0.04    12.75   0.694
  sub11                      5.70       0.00       0.00       0.46       3.97       0.00       3.97        0.05    15.02   0.697
  sub12                      5.70       0.00       0.00       0.74       3.77       0.00       3.77        0.03    12.81   0.662
  sub14                      5.70       0.00       0.00       0.51       3.92       0.00       3.92        0.04    11.54   0.688
  sub15                      5.70       0.00       0.00       1.71       3.01       0.00       3.01        0.05    15.64   0.529
  sub16                      5.70       0.00       0.00       1.88       2.90       0.00       2.90        0.03    11.24   0.509
  sub17                      5.70       0.00       0.00       1.83       2.94       0.00       2.94        0.03     9.07   0.516
  sub22                      5.70       0.00       0.00       2.45       2.46       0.00       2.46        0.16    51.43   0.432
  sub23                      5.70       0.00       0.00       2.11       2.72       0.00       2.72        0.13    43.83   0.478
  sub60                      5.70       0.00       0.00       0.68       2.62       0.00       2.62        0.79    72.79   0.459
  sub61                      5.70       0.00       0.00       0.97       2.81       0.00       2.81        0.87    91.48   0.492
  sub62                      5.70       0.00       0.00       0.46       3.01       0.00       3.01        0.92    93.44   0.528
  sub63                      5.70       0.00       0.00       1.65       2.51       0.00       2.51        0.76    85.46   0.439
  sub64                      5.70       0.00       0.00       0.86       2.50       0.00       2.50        0.76    69.11   0.438
  sub65                      5.70       0.00       0.00       0.74       2.53       0.00       2.53        0.78    70.10   0.444
  sub66                      5.70       0.00       0.00       1.65       2.18       0.00       2.18        0.67    63.40   0.383
  sub67                      5.70       0.00       0.00       0.46       3.32       0.00       3.32        1.02   120.20   0.582
  sub68                      5.70       0.00       0.00       0.80       2.99       0.00       2.99        0.92   101.20   0.524
  sub69                      5.70       0.00       0.00       0.86       3.24       0.00       3.24        0.76   100.83   0.568
  sub70                      5.70       3.31       0.00       3.06       3.95       0.00       3.95        0.90    80.33   0.438
  sub71                      5.70       0.00       0.00       0.46       2.87       0.00       2.87        0.68    65.18   0.504
  sub72                      5.70       0.00       0.00       0.40       2.01       0.00       2.01        0.41    30.52   0.353
  sub73                      5.70       3.84       0.00       3.25       4.00       0.00       4.00        0.94    68.82   0.419
  sub74                      5.70       0.00       0.00       4.28       0.98       0.00       0.98        0.39    56.34   0.171
  
  
  ******************
  Node Depth Summary
  ******************
  
  ---------------------------------------------------------------------------------
                                 Average  Maximum  Maximum  Time of Max    Reported
                                   Depth    Depth      HGL   Occurrence   Max Depth
  Node                 Type       Meters   Meters   Meters  days hr:min      Meters
  ---------------------------------------------------------------------------------
  WS02001211           JUNCTION     0.66     0.78     5.62     0  07:08        0.78
  WS02001212           JUNCTION     0.39     0.49     5.55     0  07:06        0.49
  WS02001213           JUNCTION     0.62     0.73     5.49     0  03:21        0.73
  WS02003069           JUNCTION     0.45     0.54     5.12     0  03:22        0.54
  WS02003072           JUNCTION     0.51     0.60     4.97     0  03:23        0.60
  WS02003073           JUNCTION     0.31     0.37     4.43     0  03:23        0.37
  WS02003060           JUNCTION     0.40     0.48     5.41     0  03:22        0.48
  WS02003066           JUNCTION     0.24     0.29     5.84     0  02:52        0.29
  WS02003059           JUNCTION     0.68     0.78     5.47     0  03:21        0.78
  WS02003067           JUNCTION     0.58     0.68     6.00     0  02:51        0.68
  WS02004401           JUNCTION     0.68     0.82     6.82     0  02:47        0.82
  WS02004402           JUNCTION     0.71     0.85     6.81     0  02:47        0.85
  WS02004403           JUNCTION     0.73     0.87     6.80     0  02:48        0.87
  WS02004404           JUNCTION     0.81     0.94     6.79     0  02:48        0.94
  WS02004406           JUNCTION     0.82     0.94     6.77     0  02:48        0.94
  WS02004409           JUNCTION     0.50     0.64     6.41     0  02:51        0.64
  WS02004410           JUNCTION     0.52     0.65     6.37     0  02:51        0.65
  WS02004411           JUNCTION     0.54     0.67     6.35     0  02:51        0.67
  WS02004412           JUNCTION     0.55     0.67     6.31     0  02:51        0.67
  WS02004413           JUNCTION     0.71     0.84     6.31     0  02:51        0.84
  WS02004405           JUNCTION     0.81     0.93     6.78     0  02:48        0.93
  WS02006109           JUNCTION     0.77     0.94     7.56     0  02:43        0.94
  WS02006110           JUNCTION     0.76     0.90     7.49     0  02:44        0.90
  WS02006111           JUNCTION     0.22     0.28     6.99     0  02:44        0.28
  WS02006112           JUNCTION     0.85     1.01     6.89     0  02:47        1.01
  WS02006113           JUNCTION     0.35     0.44     7.33     0  02:44        0.44
  WS02006115           JUNCTION     0.58     0.72     6.86     0  02:47        0.72
  WS02006116           JUNCTION     0.66     0.80     6.84     0  02:48        0.80
  WS02006230           JUNCTION     0.74     0.98     7.73     0  02:43        0.98
  WS02006231           JUNCTION     0.49     0.67     7.79     0  02:43        0.66
  WS02006232           JUNCTION     0.64     0.80     7.84     0  02:43        0.80
  WS02006234           JUNCTION     0.56     0.75     7.90     0  02:43        0.75
  WS02006235           JUNCTION     0.59     0.79     7.95     0  02:43        0.78
  WS02006238           JUNCTION     0.62     0.81     7.96     0  02:43        0.81
  WS02006240           JUNCTION     0.52     0.73     8.02     0  02:42        0.73
  WS02006242           JUNCTION     0.58     0.80     8.07     0  02:42        0.80
  WS02006243           JUNCTION     0.46     0.69     8.11     0  02:42        0.68
  WS02006245           JUNCTION     0.44     0.65     8.14     0  02:42        0.65
  WS02006247           JUNCTION     0.46     0.66     8.16     0  02:42        0.65
  WS02006248           JUNCTION     0.41     0.59     8.18     0  03:01        0.59
  WS02006249           JUNCTION     0.44     0.61     8.20     0  03:00        0.61
  WS02006239           JUNCTION     0.58     0.78     7.99     0  02:43        0.78
  WS02006251           JUNCTION     0.43     0.63     8.30     0  03:00        0.63
  WS02006252           JUNCTION     0.38     0.58     8.83     0  02:40        0.58
  WS02006253           JUNCTION     0.45     0.66     8.30     0  03:00        0.65
  WS02006256           JUNCTION     1.03     1.21     8.14     0  02:43        1.21
  WS02004138           JUNCTION     0.15     0.19     7.44     0  03:42        0.19
  WS02004407           JUNCTION     0.23     0.29     6.60     0  02:48        0.29
  WS02006228           JUNCTION     0.76     0.97     7.62     0  02:43        0.97
  WS02006229           JUNCTION     0.74     0.96     7.66     0  02:43        0.96
  WS02006280           JUNCTION     0.05     0.14     8.41     0  02:19        0.14
  WS02006284           JUNCTION     0.35     0.48     8.88     0  02:18        0.48
  WS02006287           JUNCTION     0.08     0.21     9.16     0  02:18        0.21
  WSF200               JUNCTION     0.22     0.29     5.53     0  02:52        0.29
  HS02004901           JUNCTION     0.11     0.23    10.05     0  02:16        0.23
  HS02004881           JUNCTION     0.01     0.02     9.05     0  02:18        0.02
  HS02004876           JUNCTION     0.03     0.10     9.13     0  02:17        0.10
  HS02004870           JUNCTION     0.01     0.04     9.33     0  02:18        0.04
  HS02004862           JUNCTION     0.01     0.05     9.43     0  02:19        0.05
  HS02004856           JUNCTION     0.07     0.10     9.53     0  02:19        0.10
  HS02004852           JUNCTION     0.01     0.03     9.54     0  02:20        0.03
  HS02004848           JUNCTION     0.01     0.03     9.63     0  02:18        0.03
  HS02004842           JUNCTION     0.33     0.36     9.63     0  02:18        0.36
  HS02004837           JUNCTION     0.03     0.05     9.63     0  02:18        0.05
  HS02004830           JUNCTION     0.04     0.06     9.53     0  02:18        0.06
  HS02004824           JUNCTION     0.02     0.04     9.44     0  02:21        0.04
  HS02004817           JUNCTION     0.42     0.52     9.37     0  02:19        0.52
  HS02004807           JUNCTION     0.11     0.20     9.37     0  02:19        0.20
  HS02004802           JUNCTION     0.15     0.23     9.36     0  02:19        0.23
  HS02004799           JUNCTION     0.10     0.25     9.46     0  02:17        0.25
  HS02004792           JUNCTION     0.02     0.10     9.62     0  02:16        0.10
  HS02004788           JUNCTION     0.02     0.07     9.97     0  02:17        0.07
  HS02004785           JUNCTION     0.03     0.13    10.03     0  02:17        0.13
  HS02004777           JUNCTION     0.13     0.25    10.05     0  02:16        0.25
  HS02004770           JUNCTION     0.10     0.22    10.05     0  02:16        0.22
  HS02004480           JUNCTION     0.06     0.19     9.44     0  02:17        0.19
  HS02004479           JUNCTION     0.10     0.23     9.44     0  02:17        0.23
  HS02004478           JUNCTION     0.05     0.12     9.35     0  02:18        0.12
  YS02001745           JUNCTION     0.08     0.11     7.63     0  03:01        0.11
  YS02001748           JUNCTION     0.28     0.40     7.48     0  04:33        0.40
  YS02001751           JUNCTION     0.46     0.60     7.48     0  04:35        0.60
  YS02001754           JUNCTION     0.71     0.88     7.49     0  04:34        0.87
  YS02001762           JUNCTION     0.91     1.17     7.57     0  03:48        1.10
  YS02001765           JUNCTION     0.86     1.11     7.56     0  03:48        1.07
  YS02001767           JUNCTION     0.82     1.18     7.67     0  03:48        1.03
  YS02001770           JUNCTION     0.82     0.98     7.47     0  04:34        0.98
  YS02001774           JUNCTION     0.89     1.06     7.48     0  04:27        1.05
  YS02001779           JUNCTION     0.64     0.82     7.51     0  03:47        0.81
  YS02001882           JUNCTION     0.28     0.45     7.16     0  02:54        0.45
  YS02001884           JUNCTION     0.37     0.54     7.16     0  02:54        0.54
  YS02001759           JUNCTION     0.94     1.19     7.56     0  03:48        1.13
  YS02001887           JUNCTION     0.45     0.62     7.16     0  02:54        0.62
  YS02001890           JUNCTION     0.48     0.65     7.16     0  02:54        0.65
  YS02001898           JUNCTION     0.25     0.41     7.14     0  02:55        0.41
  YS02001901           JUNCTION     0.37     0.54     7.14     0  02:55        0.54
  YS02001904           JUNCTION     0.35     0.51     7.14     0  02:55        0.51
  YS02001907           JUNCTION     0.68     0.85     7.14     0  02:55        0.85
  YS02001910           JUNCTION     0.47     0.64     7.14     0  02:55        0.64
  YS02001915           JUNCTION     0.27     0.42     7.14     0  02:55        0.42
  YS02001918           JUNCTION     0.08     0.09     7.16     0  03:03        0.09
  YS02001619           JUNCTION     0.42     0.56     7.49     0  04:36        0.55
  YS02001629           JUNCTION     0.77     0.93     7.48     0  04:31        0.93
  YS02001641           JUNCTION     0.87     1.06     7.50     0  03:50        1.06
  YS02001644           JUNCTION     0.88     1.08     7.51     0  03:46        1.05
  YS02001652           JUNCTION     0.72     0.89     7.49     0  04:33        0.88
  YS02001655           JUNCTION     0.49     0.64     7.49     0  04:29        0.63
  YS02001920           JUNCTION     0.17     0.20     7.21     0  03:02        0.20
  YS02001923           JUNCTION     0.06     0.08     7.34     0  03:02        0.08
  YS02001926           JUNCTION     0.14     0.17     7.62     0  03:01        0.17
  YS02001929           JUNCTION     0.06     0.08     7.78     0  03:01        0.08
  YS02001658           JUNCTION     0.22     0.34     7.48     0  04:32        0.34
  YS02001661           JUNCTION     0.14     0.20     7.60     0  02:46        0.20
  YS02001664           JUNCTION     0.07     0.11     8.04     0  02:46        0.11
  YS02001622           JUNCTION     0.44     0.57     7.47     0  04:36        0.57
  YS02001633           JUNCTION     0.86     1.04     7.49     0  03:51        1.02
  YS02001649           JUNCTION     0.92     1.10     7.49     0  04:28        1.08
  YS02001757           JUNCTION     1.04     1.23     7.50     0  04:26        1.21
  YS02001895           JUNCTION     0.25     0.41     7.15     0  02:54        0.41
  YS02001625           JUNCTION     0.72     0.88     7.49     0  04:35        0.88
  YS02163301           JUNCTION     0.80     0.97     7.49     0  04:37        0.96
  YS02163601           JUNCTION     0.91     1.10     7.49     0  03:56        1.09
  YS02164001           JUNCTION     0.85     1.04     7.50     0  03:50        1.04
  YS02001647           JUNCTION     0.71     0.87     7.48     0  04:33        0.87
  YSB1154              JUNCTION     0.24     0.38     9.44     0  02:17        0.38
  YSB6556              JUNCTION     0.13     0.27     9.44     0  02:17        0.27
  YSB1174              JUNCTION     0.19     0.33     9.44     0  02:17        0.33
  YSB1171              JUNCTION     0.39     0.53     9.44     0  02:17        0.53
  YS02006553           JUNCTION     0.68     0.86     7.14     0  02:55        0.86
  YS02006561           JUNCTION     0.14     0.22     6.88     0  02:55        0.22
  YS02006556           JUNCTION     0.66     0.83     7.14     0  02:55        0.83
  YS02006558           JUNCTION     0.70     0.87     7.14     0  02:55        0.87
  YS02001783           JUNCTION     0.24     0.39     6.53     0  02:56        0.39
  YS02001784           JUNCTION     0.27     0.42     6.49     0  02:56        0.42
  YS02001786           JUNCTION     0.23     0.36     6.39     0  02:56        0.36
  YS02001788           JUNCTION     0.17     0.27     6.24     0  02:57        0.27
  YS02001790           JUNCTION     0.20     0.32     5.97     0  02:57        0.32
  YS02001791           JUNCTION     0.13     0.21     5.68     0  03:00        0.21
  YS02001793           JUNCTION     0.09     0.14     4.97     0  02:57        0.14
  WS02004139           JUNCTION     0.60     0.72     5.63     0  07:08        0.72
  WSC                  OUTFALL      0.31     0.37     1.04     0  03:24        0.37
  3                    OUTFALL      0.08     0.21     6.21     0  02:43        0.21
  4                    OUTFALL      0.02     0.11     7.11     0  03:00        0.11
  5                    OUTFALL      0.00     0.00     5.00     0  00:00        0.00
  JK-storage           STORAGE      0.15     3.02     3.82     0  00:20        3.02
  CC-storage           STORAGE      0.28     0.44     7.44     0  04:32        0.44
  XR-storage           STORAGE      6.40     7.72     5.72     0  05:05        7.72
  
  
  *******************
  Node Inflow Summary
  *******************
  
  -------------------------------------------------------------------------------------------------
                                  Maximum  Maximum                  Lateral       Total        Flow
                                  Lateral    Total  Time of Max      Inflow      Inflow     Balance
                                   Inflow   Inflow   Occurrence      Volume      Volume       Error
  Node                 Type           LPS      LPS  days hr:min    10^6 ltr    10^6 ltr     Percent
  -------------------------------------------------------------------------------------------------
  WS02001211           JUNCTION      7.35   388.03     0  07:09       0.207        6.82       0.442
  WS02001212           JUNCTION      0.00   388.44     0  07:10           0        6.79       0.256
  WS02001213           JUNCTION      0.00   388.89     0  07:10           0        6.77       0.329
  WS02003069           JUNCTION      0.32   818.84     0  03:22     0.00902        14.4       0.207
  WS02003072           JUNCTION      0.00   818.41     0  03:22           0        14.4       0.256
  WS02003073           JUNCTION      1.82   819.94     0  03:23      0.0514        14.4       0.292
  WS02003060           JUNCTION     16.53   818.78     0  03:21       0.466        14.5       0.197
  WS02003066           JUNCTION      0.00   497.23     0  02:52           0        7.28       0.067
  WS02003059           JUNCTION      0.00   389.61     0  07:10           0        6.75       0.519
  WS02003067           JUNCTION      0.00   497.20     0  02:52           0        7.29       0.138
  WS02004401           JUNCTION      0.00   503.28     0  02:46           0        7.54       0.302
  WS02004402           JUNCTION      0.00   501.99     0  02:47           0        7.51       0.283
  WS02004403           JUNCTION      0.00   501.77     0  02:47           0        7.49       0.256
  WS02004404           JUNCTION      0.16   501.50     0  02:48     0.00457        7.48       0.192
  WS02004406           JUNCTION      0.00   501.89     0  02:48           0        7.44       0.467
  WS02004409           JUNCTION      0.00   501.28     0  02:48           0         7.4       0.248
  WS02004410           JUNCTION      0.00   499.49     0  02:49           0        7.38       0.277
  WS02004411           JUNCTION      0.00   498.32     0  02:50           0        7.36       0.283
  WS02004412           JUNCTION      0.00   497.69     0  02:50           0        7.34       0.302
  WS02004413           JUNCTION      0.00   497.31     0  02:51           0        7.32       0.442
  WS02004405           JUNCTION      0.04   501.65     0  02:48     0.00107        7.47       0.287
  WS02006109           JUNCTION      1.23   509.33     0  02:43      0.0347        7.64       0.282
  WS02006110           JUNCTION      0.00   509.32     0  02:43           0        7.62       0.281
  WS02006111           JUNCTION      0.00   527.48     0  02:44           0        7.59       0.059
  WS02006112           JUNCTION      9.07   517.24     0  02:44      0.0252        7.61       0.401
  WS02006113           JUNCTION      0.00   509.22     0  02:44           0         7.6       0.138
  WS02006115           JUNCTION      0.00   511.46     0  02:44           0        7.58       0.289
  WS02006116           JUNCTION      0.00   506.23     0  02:45           0        7.56       0.266
  WS02006230           JUNCTION     10.28   394.41     0  04:42        0.29        6.77       0.179
  WS02006231           JUNCTION      0.00   385.37     0  04:42           0        6.49       0.164
  WS02006232           JUNCTION      0.00   385.57     0  04:42           0        6.51       0.253
  WS02006234           JUNCTION      0.00   386.61     0  04:42           0        6.52       0.132
  WS02006235           JUNCTION      0.00   386.99     0  04:41           0        6.56       0.167
  WS02006238           JUNCTION      0.00   332.08     0  06:10           0         4.7       0.161
  WS02006240           JUNCTION      0.00   334.24     0  06:10           0        4.69       0.264
  WS02006242           JUNCTION      0.00   336.48     0  07:21           0         4.7       0.318
  WS02006243           JUNCTION      0.00   338.50     0  07:21           0         4.7       0.052
  WS02006245           JUNCTION      0.00   340.83     0  02:40           0         4.7       0.197
  WS02006247           JUNCTION      0.00   346.82     0  02:40           0        4.71       0.150
  WS02006248           JUNCTION      0.00   354.87     0  02:40           0        4.71       0.089
  WS02006249           JUNCTION      0.00   415.72     0  02:40           0        5.04       0.206
  WS02006239           JUNCTION      0.00   333.79     0  06:10           0        4.69       0.246
  WS02006251           JUNCTION      0.08   418.18     0  02:40     0.00217        5.08       0.178
  WS02006252           JUNCTION      0.00   400.00     0  06:40           0        4.91       0.009
  WS02006253           JUNCTION      1.40    39.76     0  02:17     0.00327       0.165       2.387
  WS02006256           JUNCTION      0.00   600.00     0  02:40           0        4.61       0.060
  WS02004138           JUNCTION      0.00   380.00     0  03:40           0        6.64       0.070
  WS02004407           JUNCTION      0.00   501.45     0  02:48           0        7.41       0.110
  WS02006228           JUNCTION      0.00   508.11     0  02:43           0        7.62       0.202
  WS02006229           JUNCTION      0.00   508.03     0  02:43           0        7.64       0.173
  WS02006280           JUNCTION      0.00   204.54     0  02:19           0       0.877       0.008
  WS02006284           JUNCTION      0.10   204.53     0  02:18      0.0027       0.878       0.121
  WS02006287           JUNCTION      0.00   204.41     0  02:18           0       0.876       0.083
  WSF200               JUNCTION      0.00   497.24     0  02:52           0        7.27       0.071
  HS02004901           JUNCTION     11.24    11.24     0  02:10      0.0304      0.0305       6.108
  HS02004881           JUNCTION      4.53    38.70     0  02:17      0.0133       0.139       0.210
  HS02004876           JUNCTION      7.17    34.49     0  02:18      0.0254       0.126       0.418
  HS02004870           JUNCTION      7.98    27.47     0  02:18      0.0251       0.101       0.105
  HS02004862           JUNCTION      6.52    20.04     0  02:18      0.0307      0.0763       0.221
  HS02004856           JUNCTION      5.91    13.57     0  02:18      0.0189      0.0471       3.158
  HS02004852           JUNCTION      0.00     8.04     0  02:18           0      0.0282       0.179
  HS02004848           JUNCTION     12.95    12.95     0  02:21      0.0597      0.0597       0.073
  HS02004842           JUNCTION      0.00     5.36     0  02:31           0      0.0445      41.299
  HS02004837           JUNCTION     19.10    23.65     0  02:17       0.223       0.254       0.320
  HS02004830           JUNCTION      0.15    23.78     0  02:18     0.00423       0.245       0.506
  HS02004824           JUNCTION     14.53    38.13     0  02:21      0.0782       0.322       0.168
  HS02004817           JUNCTION      0.60    38.72     0  02:21      0.0169       0.338       5.187
  HS02004807           JUNCTION     15.02    52.36     0  02:20      0.0461       0.367       1.164
  HS02004802           JUNCTION      0.00    52.64     0  02:21           0       0.363       1.130
  HS02004799           JUNCTION     11.54   129.64     0  02:16      0.0373       0.454       0.501
  HS02004792           JUNCTION     51.71   118.38     0  02:16       0.163       0.417       0.098
  HS02004788           JUNCTION     17.31    68.94     0  02:16      0.0989       0.254       0.152
  HS02004785           JUNCTION      0.15    52.04     0  02:16     0.00423       0.158       0.307
  HS02004777           JUNCTION      0.03    52.36     0  02:14    0.000846       0.158       3.391
  HS02004770           JUNCTION     43.83    53.69     0  02:12        0.13       0.159       1.991
  HS02004480           JUNCTION      0.00   152.82     0  02:17           0       0.529       0.137
  HS02004479           JUNCTION      0.00    23.67     0  02:18           0      0.0877       0.838
  HS02004478           JUNCTION      0.00   204.40     0  02:18           0       0.877       0.071
  YS02001745           JUNCTION     72.80    72.80     0  03:01       0.793       0.793       0.104
  YS02001748           JUNCTION      0.04    90.11     0  03:42     0.00127       0.817      -0.035
  YS02001751           JUNCTION      0.01   148.95     0  03:00     0.00031       0.819       0.597
  YS02001754           JUNCTION      0.26   102.42     0  03:06     0.00733       0.816       1.447
  YS02001762           JUNCTION      0.00   136.76     0  03:05           0       0.902       1.628
  YS02001765           JUNCTION      0.00   129.59     0  03:03           0       0.895       1.692
  YS02001767           JUNCTION      0.54   155.67     0  03:09      0.0151       0.905       2.652
  YS02001770           JUNCTION     93.59   161.57     0  03:10       0.929        1.06       1.920
  YS02001774           JUNCTION      0.00    88.81     0  03:47           0       0.259       7.374
  YS02001779           JUNCTION      0.01    81.70     0  03:47    0.000141       0.113       6.607
  YS02001882           JUNCTION      0.00     4.09     0  02:08           0     0.00513      47.739
  YS02001884           JUNCTION      0.00    11.64     0  02:08           0      0.0205      30.759
  YS02001759           JUNCTION     91.52   224.17     0  03:05       0.867        1.74       1.002
  YS02001887           JUNCTION    120.65   120.65     0  02:43        1.04        1.05       0.684
  YS02001890           JUNCTION      0.00   119.94     0  02:45           0        1.02       0.768
  YS02001898           JUNCTION      0.00   119.40     0  02:47           0        1.01       0.214
  YS02001901           JUNCTION      0.00   119.28     0  02:49           0        1.01       0.544
  YS02001904           JUNCTION      0.00   118.71     0  02:51           0        1.01       0.507
  YS02001907           JUNCTION      0.00   216.06     0  02:57           0        2.16       1.028
  YS02001910           JUNCTION      0.00    98.86     0  03:01           0        1.16       0.877
  YS02001915           JUNCTION     65.20    98.32     0  03:01       0.679        1.17       0.388
  YS02001918           JUNCTION      0.00    33.38     0  03:02           0       0.488       0.227
  YS02001619           JUNCTION     63.40    63.40     0  03:00       0.669       0.669       0.238
  YS02001629           JUNCTION      0.00   109.94     0  03:43           0        0.65       1.271
  YS02001641           JUNCTION      0.00   156.12     0  03:00           0        1.38       1.051
  YS02001644           JUNCTION     69.15   221.42     0  03:00       0.761        2.12       0.828
  YS02001652           JUNCTION      0.00   115.94     0  02:59           0       0.781       1.470
  YS02001655           JUNCTION      0.15   158.93     0  03:36     0.00434       0.794       0.757
  YS02001920           JUNCTION      2.87    33.40     0  03:02      0.0809        0.49       0.414
  YS02001923           JUNCTION      0.04    30.53     0  03:01     0.00106        0.41       0.072
  YS02001926           JUNCTION      0.05    30.56     0  03:01     0.00147       0.411       0.517
  YS02001929           JUNCTION     30.52    30.52     0  03:01        0.41        0.41       0.070
  YS02001658           JUNCTION      0.00   102.39     0  03:35           0        0.79       0.040
  YS02001661           JUNCTION      0.00    85.46     0  02:46           0       0.758       0.091
  YS02001664           JUNCTION     85.46    85.46     0  02:46       0.758       0.758       0.022
  YS02001622           JUNCTION      0.00    89.10     0  03:02           0       0.668       0.843
  YS02001633           JUNCTION     70.30   152.63     0  02:49       0.783        1.41       1.587
  YS02001649           JUNCTION      0.00   329.81     0  03:05           0        2.84       0.967
  YS02001757           JUNCTION      0.00   544.19     0  03:03           0        5.28       1.500
  YS02001895           JUNCTION      0.00   119.49     0  02:48           0        1.02       0.365
  YS02001625           JUNCTION      0.00   120.18     0  03:42           0       0.666       3.010
  YS02163301           JUNCTION      0.00   103.35     0  03:25           0       0.647       2.364
  YS02163601           JUNCTION      0.11   157.95     0  03:02      0.0031        1.39       1.635
  YS02164001           JUNCTION      0.00   157.33     0  03:02           0        1.37       0.988
  YS02001647           JUNCTION      0.00   214.00     0  02:57           0        2.09       0.739
  YSB1154              JUNCTION     12.76    12.76     0  02:15      0.0452      0.0466       3.195
  YSB6556              JUNCTION      0.00    12.71     0  02:18           0      0.0477       2.682
  YSB1174              JUNCTION     12.81    12.81     0  02:10       0.033       0.034       3.924
  YSB1171              JUNCTION      0.00    23.65     0  02:17           0      0.0872       7.816
  YS02006553           JUNCTION      0.00   216.15     0  03:02           0        2.15       0.667
  YS02006561           JUNCTION      0.00   317.11     0  02:55           0        3.04       0.021
  YS02006556           JUNCTION      0.00   216.47     0  03:02           0        2.15       0.481
  YS02006558           JUNCTION    102.08   317.12     0  02:55       0.944        3.07       0.147
  YS02001783           JUNCTION      0.00   317.10     0  02:55           0        3.04       0.050
  YS02001784           JUNCTION      1.06   318.17     0  02:56      0.0299        3.07       0.082
  YS02001786           JUNCTION      0.06   318.20     0  02:56     0.00159        3.07       0.080
  YS02001788           JUNCTION      0.07   318.27     0  02:56       0.002        3.07       0.046
  YS02001790           JUNCTION      0.15   318.42     0  02:57     0.00437        3.07       0.057
  YS02001791           JUNCTION      0.00   318.41     0  02:57           0        3.07       0.029
  YS02001793           JUNCTION      0.00   318.41     0  02:57           0        3.07       0.011
  WS02004139           JUNCTION      0.32   380.32     0  03:42     0.00905        6.65       0.506
  WSC                  OUTFALL       0.00   819.42     0  03:24           0        14.4       0.000
  3                    OUTFALL       0.00   512.69     0  02:43           0        2.72       0.000
  4                    OUTFALL       0.00   111.28     0  03:00           0       0.321       0.000
  5                    OUTFALL       0.00     0.00     0  00:00           0           0       0.000 ltr
  JK-storage           STORAGE       0.00   319.43     0  03:00           0        3.22     -30.067
  CC-storage           STORAGE       0.00   537.75     0  03:02           0        5.18       0.088
  XR-storage           STORAGE     318.00   318.00     0  02:55        6.97        7.57      -0.001
  
  
  **********************
  Node Surcharge Summary
  **********************
  
  Surcharging occurs when water rises above the top of the highest conduit.
  ---------------------------------------------------------------------
                                               Max. Height   Min. Depth
                                   Hours       Above Crown    Below Rim
  Node                 Type      Surcharged         Meters       Meters
  ---------------------------------------------------------------------
  WS02006109           JUNCTION        1.52          0.120        1.700
  WS02006112           JUNCTION        0.13          0.011        1.669
  WS02006232           JUNCTION        1.93          0.102        1.378
  WS02006234           JUNCTION        0.12          0.027        1.213
  WS02006235           JUNCTION        0.77          0.075        1.215
  WS02006238           JUNCTION        1.40          0.093        1.337
  WS02006240           JUNCTION        0.11          0.021        1.369
  WS02006242           JUNCTION        0.93          0.071        0.749
  WS02006239           JUNCTION        0.29          0.044        1.246
  WS02006252           JUNCTION        2.31          0.185        0.915
  WS02006228           JUNCTION        1.30          0.141        2.059
  YS02001762           JUNCTION        3.37          0.168        0.982
  YS02001765           JUNCTION        0.79          0.112        0.988
  YS02001767           JUNCTION        0.04          0.177        0.853
  YS02001774           JUNCTION        2.50          0.056        0.994
  YS02001759           JUNCTION        3.77          0.193        1.017
  YS02001641           JUNCTION        1.76          0.065        1.035
  YS02001644           JUNCTION        2.00          0.076        0.844
  YS02001633           JUNCTION        0.07          0.018        1.042
  YS02001649           JUNCTION        3.47          0.099        0.951
  YS02001757           JUNCTION        4.43          0.234        0.976
  YS02163601           JUNCTION        3.44          0.096        0.984
  YS02164001           JUNCTION        0.53          0.043        1.057
  
  
  *********************
  Node Flooding Summary
  *********************
  
  Flooding refers to all water that overflows a node, whether it ponds or not.
  --------------------------------------------------------------------------
                                                             Total   Maximum
                                 Maximum   Time of Max       Flood    Ponded
                        Hours       Rate    Occurrence      Volume     Depth
  Node                 Flooded       LPS   days hr:min    10^6 ltr    Meters
  --------------------------------------------------------------------------
  XR-storage              0.92    253.57      0  05:10       0.261     0.000
  
  
  **********************
  Storage Volume Summary
  **********************
  
  --------------------------------------------------------------------------------------------------
                         Average     Avg  Evap Exfil       Maximum     Max    Time of Max    Maximum
                          Volume    Pcnt  Pcnt  Pcnt        Volume    Pcnt     Occurrence    Outflow
  Storage Unit           1000 m3    Full  Loss  Loss       1000 m3    Full    days hr:min        LPS
  --------------------------------------------------------------------------------------------------
  JK-storage               0.007       3     0     0         0.151      52       0  00:20     600.00
  CC-storage               0.769       5     0     0         1.232       8       0  04:32     400.00
  XR-storage               0.768      83     0     0         0.926     100       0  05:05     380.00
  
  
  ***********************
  Outfall Loading Summary
  ***********************
  
  -----------------------------------------------------------
                         Flow       Avg       Max       Total
                         Freq      Flow      Flow      Volume
  Outfall Node           Pcnt       LPS       LPS    10^6 ltr
  -----------------------------------------------------------
  WSC                  100.00    600.68    819.42      14.372
  3                     83.23    164.03    512.69       2.718
  4                     37.75     39.11    111.28       0.321
  5                      0.00      0.00      0.00       0.000
  -----------------------------------------------------------
  System                55.24    803.82   1249.19      17.412
  
  
  ********************
  Link Flow Summary
  ********************
  
  -----------------------------------------------------------------------------
                                 Maximum  Time of Max   Maximum    Max/    Max/
                                  |Flow|   Occurrence   |Veloc|    Full    Full
  Link                 Type          LPS  days hr:min     m/sec    Flow   Depth
  -----------------------------------------------------------------------------
  WS02003066WSF200     CONDUIT    497.24     0  02:52      2.71    0.08    0.22
  WS02006287WS02006284 CONDUIT    204.43     0  02:18      1.62    0.09    0.22
  WS02006284WS02006280 CONDUIT    204.54     0  02:19      1.86    0.09    0.20
  WS02006280WS02006229 CONDUIT    204.54     0  02:19      2.99    0.04    0.14
  WS02006229WS02006228 CONDUIT    508.11     0  02:43      1.01    1.68    1.00
  WS02006256WS02006235 CONDUIT    158.11     0  00:23      2.30    1.67    1.00
  WS02006253WS02006251 CONDUIT     44.43     0  02:24      0.49    0.13    0.91
  WS02006252WS02006251 CONDUIT    400.13     0  07:20      3.18    1.47    1.00
  WS02006251WS02006249 CONDUIT    415.72     0  02:40      1.20    1.20    0.88
  WS02006249WS02006248 CONDUIT    354.87     0  02:40      1.14    1.94    0.84
  WS02006248WS02006247 CONDUIT    346.82     0  02:40      1.09    0.75    0.88
  WS02006247WS02006245 CONDUIT    340.83     0  02:40      1.04    2.70    0.93
  WS02006245WS02006243 CONDUIT    338.50     0  07:21      1.02    1.00    0.95
  WS02006243WS02006242 CONDUIT    336.48     0  07:21      0.94    0.72    0.99
  WS02006242WS02006240 CONDUIT    334.24     0  06:10      0.92    1.33    1.00
  WS02006240WS02006239 CONDUIT    333.79     0  06:10      0.96    1.05    1.00
  WS02006239WS02006238 CONDUIT    332.08     0  06:10      0.90    1.06    1.00
  WS02006238WS02006235 CONDUIT    330.34     0  06:10      0.91    0.74    1.00
  WS02006235WS02006234 CONDUIT    386.61     0  04:42      1.03    4.08    1.00
  WS02006234WS02006232 CONDUIT    385.57     0  04:42      1.02    0.78    1.00
  WS02006232WS02006231 CONDUIT    385.37     0  04:42      1.05    0.81    0.97
  WS02006231WS02006230 CONDUIT    384.13     0  04:42      1.32    5.83    0.91
  WS02006230WS02006229 CONDUIT    393.85     0  04:43      1.02    8.76    1.00
  WS02006228WS02006109 CONDUIT    508.10     0  02:43      1.01    2.22    1.00
  WS02006116WS02004401 CONDUIT    503.28     0  02:46      0.77    0.69    0.81
  WS02006115WS02006116 CONDUIT    506.23     0  02:45      0.84    0.65    0.73
  WS02006113WS02006111 CONDUIT    527.48     0  02:44      2.41    0.63    0.45
  WS02006112WS02006115 CONDUIT    511.46     0  02:44      0.72    0.30    0.85
  WS02006111WS02006112 CONDUIT    513.55     0  02:44      1.44    0.24    0.67
  WS02006110WS02006113 CONDUIT    509.22     0  02:44      1.22    0.46    0.78
  WS02006109WS02006110 CONDUIT    509.32     0  02:43      1.01    0.98    0.99
  WS02004411WS02004412 CONDUIT    497.69     0  02:50      0.89    0.71    0.67
  WS02004401WS02004402 CONDUIT    501.99     0  02:47      0.80    0.60    0.84
  WS02004413WS02003067 CONDUIT    497.20     0  02:52      1.06    0.21    0.57
  WS02004412WS02004413 CONDUIT    497.31     0  02:51      0.78    0.33    0.76
  WS02004410WS02004411 CONDUIT    498.32     0  02:50      0.91    0.68    0.66
  WS02004409WS02004410 CONDUIT    499.49     0  02:49      0.94    0.65    0.65
  WS02004407WS02004409 CONDUIT    501.28     0  02:48      1.43    0.18    0.46
  WS02004406WS02004407 CONDUIT    501.45     0  02:48      1.00    0.22    0.61
  WS02004405WS02004406 CONDUIT    501.89     0  02:48      0.66    0.99    0.93
  WS02004404WS02004405 CONDUIT    501.61     0  02:48      0.88    4.91    0.94
  WS02004403WS02004404 CONDUIT    501.33     0  02:48      0.75    0.36    0.90
  WS02004402WS02004403 CONDUIT    501.77     0  02:47      0.79    0.72    0.86
  WS02004139WS02001211 CONDUIT    380.69     0  07:09      0.81    0.48    0.58
  WS02004138WS02004139 CONDUIT    380.00     0  03:42      3.34    0.08    0.43
  WS02003067WS02003066 CONDUIT    497.23     0  02:52      1.16    0.16    0.41
  WS02001213WS02003059 CONDUIT    389.61     0  07:10      0.78    0.64    0.74
  WS02001212WS02001213 CONDUIT    388.89     0  07:10      1.29    0.60    0.45
  WS02001211WS02001212 CONDUIT    388.44     0  07:10      0.76    0.30    0.63
  WS02003072WS02003073 CONDUIT    818.12     0  03:23      1.64    1.77    0.45
  WS02003069WS02003072 CONDUIT    818.41     0  03:22      1.55    0.39    0.47
  WS02003060WS02003069 CONDUIT    818.52     0  03:22      1.80    0.32    0.42
  WS02003059WS02003060 CONDUIT    390.62     0  07:10      0.91    0.26    0.63
  HS02004901HS02004770 CONDUIT     10.25     0  02:15      0.05    0.04    0.32
  HS02004876HS02004881 CONDUIT     34.56     0  02:18      0.56    0.37    0.09
  HS02004870HS02004876 CONDUIT     27.45     0  02:18      0.39    0.02    0.10
  HS02004842HS02004848 CONDUIT      5.36     0  02:31      0.03    0.00    0.27
  HS02004837HS02004842 CONDUIT      5.55     0  02:31      0.42    0.00    0.29
  HS02004830HS02004837 CONDUIT     23.63     0  02:18      0.44    0.02    0.08
  HS02004824HS02004830 CONDUIT     23.78     0  02:19      0.48    0.03    0.07
  HS02004817HS02004824 CONDUIT     38.12     0  02:21      0.17    0.02    0.40
  HS02004770HS02004777 CONDUIT     52.33     0  02:14      0.23    0.10    0.33
  HS02004799HS02004480 CONDUIT    129.44     0  02:16      0.59    0.16    0.31
  HS02004792HS02004799 CONDUIT    118.31     0  02:16      0.68    0.07    0.25
  HS02004788HS02004792 CONDUIT     68.88     0  02:17      0.83    0.05    0.12
  HS02004785HS02004788 CONDUIT     51.95     0  02:17      0.51    0.39    0.14
  HS02004777HS02004785 CONDUIT     51.89     0  02:16      0.27    0.06    0.27
  HS02004480HS02004478 CONDUIT    152.78     0  02:17      0.96    0.64    0.23
  HS02004479HS02004480 CONDUIT     23.89     0  02:20      0.16    0.02    0.31
  HS02004862HS02004870 CONDUIT     20.00     0  02:19      0.47    0.02    0.06
  HS02004848HS02004852 CONDUIT      8.04     0  02:18      0.31    0.01    0.04
  HS02004856HS02004862 CONDUIT     13.54     0  02:19      0.34    0.01    0.06
  HS02004852HS02004856 CONDUIT      8.00     0  02:20      0.12    0.01    0.09
  HS02004802HS02004478 CONDUIT     53.03     0  02:22      0.30    0.05    0.25
  HS02004478WS02006287 CONDUIT    204.41     0  02:18      1.31    0.06    0.17
  HS02004817HS02004807 CONDUIT     39.27     0  02:23      0.11    0.02    0.51
  HS02004807HS02004802 CONDUIT     52.64     0  02:21      0.25    0.10    0.30
  YS02001759YS02001757 CONDUIT    224.83     0  03:05      0.29    0.16    1.00
  YS02001762YS02001759 CONDUIT    137.82     0  03:05      0.18    0.16    1.00
  YS02001765YS02001762 CONDUIT    136.76     0  03:05      0.23    0.13    1.00
  YS02001770YS02001767 CONDUIT    155.14     0  03:09      0.34    0.61    0.99
  YS02001774YS02001770 CONDUIT     88.81     0  03:47      0.14    0.06    0.97
  YS02001779YS02001774 CONDUIT     81.70     0  03:47      0.11    0.04    0.91
  YS02001649YS02001757 CONDUIT    321.40     0  03:03      0.41    0.20    1.00
  YS02001767YS02001765 CONDUIT    129.59     0  03:03      0.26    0.16    1.00
  YS02006561YS02001783 CONDUIT    317.10     0  02:55      1.79    0.16    0.38
  YS02001783YS02001784 CONDUIT    317.11     0  02:56      1.24    0.44    0.51
  YS02001784YS02001785 CONDUIT    318.15     0  02:56      1.32    0.74    0.48
  YS02001788YS02001790 CONDUIT    318.26     0  02:57      1.88    0.23    0.37
  YS02001790YS02001791 CONDUIT    318.41     0  02:57      2.17    0.35    0.33
  YS02001791YS02001793 CONDUIT    318.41     0  02:57      4.26    0.14    0.22
  YS02001910YS02001907 CONDUIT     98.95     0  03:01      0.49    0.06    0.74
  YS02001786YS02001788 CONDUIT    318.19     0  02:56      1.75    0.61    0.39
  YS02001915YS02001910 CONDUIT     98.86     0  03:01      0.44    0.05    0.53
  YS02001918YS02001915 CONDUIT     33.36     0  03:03      0.44    0.02    0.26
  YS02001923YS02001920 CONDUIT     30.53     0  03:02      0.45    0.01    0.14
  YS02001926YS02001923 CONDUIT     30.49     0  03:01      0.49    0.04    0.13
  YS02001929YS02001926 CONDUIT     30.51     0  03:01      0.52    0.01    0.13
  YS02001920YS02001918 CONDUIT     33.38     0  03:02      0.46    0.03    0.15
  YS02001629YS02163301 CONDUIT    103.35     0  03:25      0.14    0.13    0.95
  YS02001619YS02001622 CONDUIT     89.10     0  03:02      0.66    0.13    0.56
  YS02001622YS02001625 CONDUIT     93.45     0  03:25      0.25    0.05    0.72
  YS02001625YS02001629 CONDUIT    109.94     0  03:43      0.25    0.05    0.71
  YS02163301YS02001633 CONDUIT     86.57     0  03:15      0.11    0.08    0.98
  YS02163601YS02164001 CONDUIT    157.33     0  03:02      0.20    0.14    1.00
  YS02164001YS02001641 CONDUIT    156.12     0  03:00      0.20    0.21    1.00
  YS02001641YS02001644 CONDUIT    152.29     0  03:00      0.19    0.49    1.00
  YS02001647YS02001649 CONDUIT    236.17     0  03:00      0.31    0.12    0.94
  YS02006553YS02006556 CONDUIT    216.47     0  03:02      0.31    0.19    0.82
  YS02006556YS02006558 CONDUIT    216.69     0  03:02      0.31    0.17    0.85
  YSB6556YSB1171       CONDUIT     12.91     0  02:19      0.06    0.01    0.57
  YS02001907YS02006553 CONDUIT    216.15     0  03:02      0.26    0.25    0.93
  YS02006558YS02006561 CONDUIT    317.11     0  02:55      2.29    0.70    0.49
  YS02001633YS02163601 CONDUIT    157.84     0  03:02      0.20    0.17    1.00
  YS02001644YS02001647 CONDUIT    214.00     0  02:57      0.29    0.13    0.94
  YS02001745YS02001748 CONDUIT     72.79     0  03:01      1.40    0.03    0.22
  YS02001748YS02001751 CONDUIT    148.94     0  03:00      1.09    0.08    0.49
  YS02001751YS02001754 CONDUIT    102.16     0  03:06      0.97    0.05    0.71
  YS02001754YS02001757 CONDUIT    131.70     0  03:03      0.33    0.05    0.94
  YS02001882YS02001884 CONDUIT      4.09     0  02:08      0.06    0.00    0.47
  YS02001884YS02001887 CONDUIT     11.64     0  02:08      0.06    0.02    0.56
  YS02001890YS02001895 CONDUIT    119.49     0  02:48      0.29    0.06    0.53
  YS02001895YS02001898 CONDUIT    119.40     0  02:47      0.49    0.21    0.39
  YS02001898YS02001901 CONDUIT    119.28     0  02:49      0.33    0.08    0.47
  YS02001901YS02001904 CONDUIT    118.71     0  02:51      0.29    0.18    0.52
  YS02001904YS02001907 CONDUIT    118.90     0  02:52      0.21    0.04    0.68
  YS02001887YS02001890 CONDUIT    119.94     0  02:45      0.24    0.21    0.61
  YS02001652YS02001649 CONDUIT    140.55     0  03:37      0.33    0.07    0.95
  YS02001655YS02001652 CONDUIT    115.94     0  02:59      1.05    0.06    0.74
  YS02001658YS02001655 CONDUIT    158.78     0  03:36      1.26    0.07    0.48
  YS02001661YS02001658 CONDUIT     85.46     0  02:46      1.45    0.03    0.22
  YS02001664YS02001661 CONDUIT     85.46     0  02:46      1.11    0.03    0.15
  YSB1154YSB6556       CONDUIT     12.71     0  02:18      0.19    0.02    0.46
  YSB1174YSB1171       CONDUIT     11.84     0  02:11      0.06    0.02    0.58
  YSB1171HS02004479    CONDUIT     23.67     0  02:18      0.54    0.02    0.45
  HS02004881HS02006253 CONDUIT     38.69     0  02:18      1.66    0.01    0.24
  YS02001793JiankangQianchi CONDUIT    319.43     0  03:00     13.24    0.03    0.55
  YS02001757CaochengTiaoxuchi CONDUIT    537.75     0  03:02      1.15    0.24    0.72
  WSF200WS02003060     CONDUIT    497.21     0  02:52      1.83    0.11    0.31
  1                    CONDUIT    819.42     0  03:24      3.15    0.29    0.37
  2                    CONDUIT    111.28     0  03:00      4.99    0.27    0.35
  3                    CONDUIT    512.69     0  02:43      9.83    0.82    0.69
  4                    CONDUIT      0.00     0  00:00      0.00    0.00    0.00
  CC-Pump-1            PUMP       200.00     0  02:40              1.00
  CC-Pump-2            PUMP       200.00     0  03:00              1.00
  JK-Pump-1            PUMP       300.00     0  02:40              1.00
  JK-Pump-2            PUMP       300.00     0  00:30              1.00
  XR-Pump-1            PUMP        95.00     0  01:20              1.00
  XR-Pump-2            PUMP        95.00     0  00:00              1.00
  XR-Pump-3            PUMP        95.00     0  00:00              1.00
  XR-Pump-4            PUMP        95.00     0  00:00              1.00
  
  
  ***************************
  Flow Classification Summary
  ***************************
  
  -------------------------------------------------------------------------------------
                      Adjusted    ---------- Fraction of Time in Flow Class ---------- 
                       /Actual         Up    Down  Sub   Sup   Up    Down  Norm  Inlet 
  Conduit               Length    Dry  Dry   Dry   Crit  Crit  Crit  Crit  Ltd   Ctrl  
  -------------------------------------------------------------------------------------
  WS02003066WSF200        1.00   0.05  0.01  0.00  0.00  0.94  0.00  0.00  0.72  0.00
  WS02006287WS02006284    1.00   0.03  0.01  0.00  0.70  0.25  0.00  0.00  0.77  0.00
  WS02006284WS02006280    1.00   0.04  0.00  0.00  0.00  0.00  0.00  0.96  0.00  0.00
  WS02006280WS02006229    1.00   0.04  0.00  0.00  0.00  0.00  0.00  0.96  0.00  0.00
  WS02006229WS02006228    1.00   0.00  0.00  0.00  1.00  0.00  0.00  0.00  0.00  0.00
  WS02006256WS02006235    1.00   0.01  0.00  0.00  0.99  0.00  0.00  0.00  0.00  0.00
  WS02006253WS02006251    1.00   0.01  0.03  0.00  0.96  0.00  0.00  0.00  0.00  0.00
  WS02006252WS02006251    1.00   0.08  0.00  0.00  0.00  0.00  0.92  0.00  0.00  0.00
  WS02006251WS02006249    1.00   0.00  0.00  0.00  1.00  0.00  0.00  0.00  0.27  0.00
  WS02006249WS02006248    1.00   0.00  0.00  0.00  0.91  0.00  0.08  0.00  0.00  0.00
  WS02006248WS02006247    1.00   0.00  0.00  0.00  0.97  0.00  0.00  0.02  0.17  0.00
  WS02006247WS02006245    1.00   0.00  0.00  0.00  0.97  0.00  0.00  0.02  0.00  0.00
  WS02006245WS02006243    1.00   0.01  0.00  0.00  0.95  0.00  0.00  0.05  0.01  0.00
  WS02006243WS02006242    1.00   0.01  0.00  0.00  0.99  0.00  0.00  0.00  0.23  0.00
  WS02006242WS02006240    1.00   0.01  0.00  0.00  0.99  0.00  0.00  0.00  0.00  0.00
  WS02006240WS02006239    1.00   0.01  0.00  0.00  0.96  0.00  0.00  0.03  0.01  0.00
  WS02006239WS02006238    1.00   0.01  0.00  0.00  0.99  0.00  0.00  0.00  0.01  0.00
  WS02006238WS02006235    1.00   0.01  0.00  0.00  0.99  0.00  0.00  0.00  0.00  0.00
  WS02006235WS02006234    1.00   0.01  0.00  0.00  0.96  0.00  0.04  0.00  0.00  0.00
  WS02006234WS02006232    1.00   0.01  0.00  0.00  0.99  0.00  0.00  0.00  0.11  0.00
  WS02006232WS02006231    1.00   0.01  0.00  0.00  0.99  0.00  0.00  0.00  0.00  0.00
  WS02006231WS02006230    1.00   0.01  0.00  0.00  0.73  0.00  0.26  0.00  0.00  0.00
  WS02006230WS02006229    1.00   0.00  0.00  0.00  0.99  0.00  0.00  0.01  0.00  0.00
  WS02006228WS02006109    1.00   0.00  0.00  0.00  1.00  0.00  0.00  0.00  0.00  0.00
  WS02006116WS02004401    1.00   0.03  0.00  0.00  0.97  0.00  0.00  0.00  0.00  0.00
  WS02006115WS02006116    1.00   0.03  0.00  0.00  0.97  0.00  0.00  0.00  0.00  0.00
  WS02006113WS02006111    1.00   0.02  0.00  0.00  0.00  0.98  0.00  0.00  0.10  0.00
  WS02006112WS02006115    1.00   0.02  0.01  0.00  0.97  0.00  0.00  0.00  0.00  0.00
  WS02006111WS02006112    1.00   0.02  0.00  0.00  0.97  0.00  0.00  0.00  0.94  0.00
  WS02006110WS02006113    1.00   0.00  0.02  0.00  0.98  0.00  0.00  0.00  0.00  0.00
  WS02006109WS02006110    1.00   0.00  0.00  0.00  1.00  0.00  0.00  0.00  0.00  0.00
  WS02004411WS02004412    1.00   0.04  0.00  0.00  0.96  0.00  0.00  0.00  0.00  0.00
  WS02004401WS02004402    1.00   0.03  0.00  0.00  0.97  0.00  0.00  0.00  0.00  0.00
  WS02004413WS02003067    1.00   0.04  0.01  0.00  0.00  0.00  0.95  0.00  0.00  0.00
  WS02004412WS02004413    1.00   0.04  0.00  0.00  0.96  0.00  0.00  0.00  0.03  0.00
  WS02004410WS02004411    1.00   0.04  0.00  0.00  0.96  0.00  0.00  0.00  0.03  0.00
  WS02004409WS02004410    1.00   0.04  0.00  0.00  0.96  0.00  0.00  0.00  0.04  0.00
  WS02004407WS02004409    1.00   0.04  0.00  0.00  0.96  0.00  0.00  0.00  0.86  0.00
  WS02004406WS02004407    1.00   0.00  0.04  0.00  0.96  0.00  0.00  0.00  0.00  0.00
  WS02004405WS02004406    1.00   0.00  0.00  0.00  1.00  0.00  0.00  0.00  0.04  0.00
  WS02004404WS02004405    1.00   0.00  0.00  0.00  1.00  0.00  0.00  0.00  0.00  0.00
  WS02004403WS02004404    1.00   0.00  0.03  0.00  0.97  0.00  0.00  0.00  0.01  0.00
  WS02004402WS02004403    1.00   0.03  0.00  0.00  0.97  0.00  0.00  0.00  0.00  0.00
  WS02004139WS02001211    1.00   0.00  0.00  0.00  1.00  0.00  0.00  0.00  0.00  0.00
  WS02004138WS02004139    1.00   0.00  0.00  0.00  1.00  0.00  0.00  0.00  1.00  0.00
  WS02003067WS02003066    1.00   0.05  0.00  0.00  0.94  0.00  0.00  0.00  0.00  0.00
  WS02001213WS02003059    1.00   0.00  0.00  0.00  1.00  0.00  0.00  0.00  0.00  0.00
  WS02001212WS02001213    1.00   0.00  0.00  0.00  0.88  0.00  0.12  0.00  0.00  0.00
  WS02001211WS02001212    1.00   0.00  0.00  0.00  1.00  0.00  0.00  0.00  0.00  0.00
  WS02003072WS02003073    1.00   0.00  0.00  0.00  0.00  0.00  0.00  1.00  0.00  0.00
  WS02003069WS02003072    1.00   0.00  0.00  0.00  1.00  0.00  0.00  0.00  0.27  0.00
  WS02003060WS02003069    1.00   0.00  0.00  0.00  1.00  0.00  0.00  0.00  0.15  0.00
  WS02003059WS02003060    1.00   0.00  0.00  0.00  1.00  0.00  0.00  0.00  0.01  0.00
  HS02004901HS02004770    1.00   0.04  0.00  0.00  0.96  0.00  0.00  0.00  0.03  0.00
  HS02004876HS02004881    1.00   0.00  0.00  0.00  1.00  0.00  0.00  0.00  0.00  0.00
  HS02004870HS02004876    1.00   0.00  0.00  0.00  1.00  0.00  0.00  0.00  0.95  0.00
  HS02004842HS02004848    1.00   0.00  0.04  0.00  0.96  0.00  0.00  0.00  0.69  0.00
  HS02004837HS02004842    1.00   0.00  0.00  0.00  1.00  0.00  0.00  0.00  0.11  0.00
  HS02004830HS02004837    1.00   0.00  0.00  0.00  1.00  0.00  0.00  0.00  0.99  0.00
  HS02004824HS02004830    1.00   0.00  0.00  0.00  1.00  0.00  0.00  0.00  0.00  0.00
  HS02004817HS02004824    1.00   0.00  0.00  0.00  1.00  0.00  0.00  0.00  1.00  0.00
  HS02004770HS02004777    1.00   0.00  0.04  0.00  0.96  0.00  0.00  0.00  0.07  0.00
  HS02004799HS02004480    1.00   0.00  0.01  0.00  0.95  0.00  0.05  0.00  0.00  0.00
  HS02004792HS02004799    1.00   0.00  0.00  0.00  1.00  0.00  0.00  0.00  0.98  0.00
  HS02004788HS02004792    1.00   0.00  0.00  0.00  1.00  0.00  0.00  0.00  0.98  0.00
  HS02004785HS02004788    1.00   0.00  0.00  0.00  1.00  0.00  0.00  0.00  0.00  0.00
  HS02004777HS02004785    1.00   0.00  0.00  0.00  1.00  0.00  0.00  0.00  0.21  0.00
  HS02004480HS02004478    1.00   0.04  0.00  0.00  0.74  0.00  0.00  0.22  0.00  0.00
  HS02004479HS02004480    1.00   0.01  0.00  0.00  0.99  0.00  0.00  0.00  0.16  0.00
  HS02004862HS02004870    1.00   0.00  0.00  0.00  1.00  0.00  0.00  0.00  0.05  0.00
  HS02004848HS02004852    1.00   0.04  0.00  0.00  0.96  0.00  0.00  0.00  0.71  0.00
  HS02004856HS02004862    1.00   0.00  0.06  0.00  0.94  0.00  0.00  0.00  0.74  0.00
  HS02004852HS02004856    1.00   0.04  0.01  0.00  0.95  0.00  0.00  0.00  0.82  0.00
  HS02004802HS02004478    1.00   0.04  0.01  0.00  0.95  0.00  0.00  0.00  0.00  0.00
  HS02004478WS02006287    1.00   0.05  0.00  0.00  0.89  0.06  0.00  0.00  0.77  0.00
  HS02004817HS02004807    1.00   0.00  0.04  0.00  0.96  0.00  0.00  0.00  0.00  0.00
  HS02004807HS02004802    1.00   0.04  0.00  0.00  0.96  0.00  0.00  0.00  0.01  0.00
  YS02001759YS02001757    1.00   0.00  0.00  0.00  1.00  0.00  0.00  0.00  0.17  0.00
  YS02001762YS02001759    1.00   0.00  0.00  0.00  1.00  0.00  0.00  0.00  0.05  0.00
  YS02001765YS02001762    1.00   0.00  0.00  0.00  1.00  0.00  0.00  0.00  0.22  0.00
  YS02001770YS02001767    1.00   0.00  0.00  0.00  1.00  0.00  0.00  0.00  0.00  0.00
  YS02001774YS02001770    1.00   0.00  0.05  0.00  0.95  0.00  0.00  0.00  0.06  0.00
  YS02001779YS02001774    1.00   0.00  0.00  0.00  1.00  0.00  0.00  0.00  0.26  0.00
  YS02001649YS02001757    1.00   0.00  0.00  0.00  1.00  0.00  0.00  0.00  0.19  0.00
  YS02001767YS02001765    1.00   0.00  0.00  0.00  1.00  0.00  0.00  0.00  0.01  0.00
  YS02006561YS02001783    1.00   0.06  0.00  0.00  0.00  0.94  0.00  0.00  0.73  0.00
  YS02001783YS02001784    1.00   0.00  0.06  0.00  0.94  0.00  0.00  0.00  0.00  0.00
  YS02001784YS02001785    1.00   0.00  0.00  0.00  1.00  0.00  0.00  0.00  0.25  0.00
  YS02001788YS02001790    1.00   0.00  0.00  0.00  0.07  0.93  0.00  0.00  0.77  0.00
  YS02001790YS02001791    1.00   0.00  0.00  0.00  0.00  1.00  0.00  0.00  0.54  0.00
  YS02001791YS02001793    1.00   0.00  0.00  0.00  0.00  1.00  0.00  0.00  0.00  0.00
  YS02001910YS02001907    1.00   0.00  0.00  0.00  0.99  0.00  0.00  0.00  0.13  0.00
  YS02001786YS02001788    1.00   0.00  0.00  0.00  0.07  0.93  0.00  0.00  0.00  0.00
  YS02001915YS02001910    1.00   0.00  0.00  0.00  1.00  0.00  0.00  0.00  0.24  0.00
  YS02001918YS02001915    1.00   0.00  0.00  0.00  1.00  0.00  0.00  0.00  0.81  0.00
  YS02001923YS02001920    1.00   0.00  0.00  0.00  1.00  0.00  0.00  0.00  1.00  0.00
  YS02001926YS02001923    1.00   0.00  0.03  0.00  0.00  0.00  0.97  0.00  0.00  0.00
  YS02001929YS02001926    1.00   0.00  0.04  0.00  0.96  0.00  0.00  0.00  0.87  0.00
  YS02001920YS02001918    1.00   0.00  0.00  0.00  1.00  0.00  0.00  0.00  0.00  0.00
  YS02001629YS02163301    1.00   0.06  0.00  0.00  0.94  0.00  0.00  0.00  0.00  0.00
  YS02001619YS02001622    1.00   0.04  0.00  0.00  0.96  0.00  0.00  0.00  0.00  0.00
  YS02001622YS02001625    1.00   0.04  0.00  0.00  0.96  0.00  0.00  0.00  0.13  0.00
  YS02001625YS02001629    1.00   0.04  0.02  0.00  0.92  0.00  0.01  0.00  0.00  0.00
  YS02163301YS02001633    1.00   0.00  0.06  0.00  0.94  0.00  0.00  0.00  0.00  0.00
  YS02163601YS02164001    1.00   0.00  0.03  0.00  0.97  0.00  0.00  0.00  0.00  0.00
  YS02164001YS02001641    1.00   0.00  0.03  0.00  0.97  0.00  0.00  0.00  0.07  0.00
  YS02001641YS02001644    1.00   0.00  0.00  0.00  1.00  0.00  0.00  0.00  0.00  0.00
  YS02001647YS02001649    1.00   0.00  0.06  0.00  0.94  0.00  0.00  0.00  0.01  0.00
  YS02006553YS02006556    1.00   0.00  0.00  0.00  1.00  0.00  0.00  0.00  0.03  0.00
  YS02006556YS02006558    1.00   0.00  0.00  0.00  1.00  0.00  0.00  0.00  0.00  0.00
  YSB6556YSB1171          1.00   0.01  0.03  0.00  0.96  0.00  0.00  0.00  0.00  0.00
  YS02001907YS02006553    1.00   0.00  0.00  0.00  1.00  0.00  0.00  0.00  0.00  0.00
  YS02006558YS02006561    1.00   0.06  0.00  0.00  0.00  0.94  0.00  0.00  0.72  0.00
  YS02001633YS02163601    1.00   0.00  0.00  0.00  1.00  0.00  0.00  0.00  0.20  0.00
  YS02001644YS02001647    1.00   0.00  0.06  0.00  0.94  0.00  0.00  0.00  0.00  0.00
  YS02001745YS02001748    1.00   0.00  0.00  0.00  0.75  0.05  0.00  0.19  0.61  0.00
  YS02001748YS02001751    1.00   0.00  0.00  0.00  0.98  0.02  0.00  0.00  0.26  0.00
  YS02001751YS02001754    1.00   0.00  0.00  0.00  0.93  0.00  0.00  0.07  0.02  0.00
  YS02001754YS02001757    1.00   0.00  0.00  0.00  1.00  0.00  0.00  0.00  0.26  0.00
  YS02001882YS02001884    1.00   0.05  0.00  0.00  0.94  0.00  0.00  0.00  0.00  0.00
  YS02001884YS02001887    1.00   0.02  0.01  0.00  0.96  0.00  0.00  0.00  0.00  0.00
  YS02001890YS02001895    1.00   0.00  0.06  0.00  0.94  0.00  0.00  0.00  0.00  0.00
  YS02001895YS02001898    1.00   0.06  0.00  0.00  0.93  0.00  0.01  0.00  0.00  0.00
  YS02001898YS02001901    1.00   0.06  0.00  0.00  0.94  0.00  0.00  0.00  0.02  0.00
  YS02001901YS02001904    1.00   0.06  0.00  0.00  0.94  0.00  0.00  0.00  0.00  0.00
  YS02001904YS02001907    1.00   0.00  0.06  0.00  0.94  0.00  0.00  0.00  0.00  0.00
  YS02001887YS02001890    1.00   0.00  0.00  0.00  0.99  0.00  0.00  0.00  0.00  0.00
  YS02001652YS02001649    1.00   0.00  0.00  0.00  1.00  0.00  0.00  0.00  0.26  0.00
  YS02001655YS02001652    1.00   0.00  0.00  0.00  0.93  0.00  0.00  0.07  0.02  0.00
  YS02001658YS02001655    1.00   0.00  0.05  0.00  0.93  0.02  0.00  0.00  0.17  0.00
  YS02001661YS02001658    1.00   0.05  0.00  0.00  0.79  0.16  0.00  0.00  0.72  0.00
  YS02001664YS02001661    1.00   0.04  0.00  0.00  0.76  0.20  0.00  0.00  0.86  0.00
  YSB1154YSB6556          1.00   0.04  0.00  0.00  0.96  0.00  0.00  0.00  0.02  0.00
  YSB1174YSB1171          1.00   0.01  0.02  0.00  0.97  0.00  0.00  0.00  0.00  0.00
  YSB1171HS02004479       1.00   0.01  0.00  0.00  0.99  0.00  0.00  0.01  0.13  0.00
  HS02004881HS02006253    1.00   0.01  0.00  0.00  0.86  0.01  0.00  0.12  0.65  0.00
  YS02001793JiankangQianchi    1.00   0.00  0.00  0.00  0.11  0.89  0.00  0.00  0.19  0.00
  YS02001757CaochengTiaoxuchi    1.00   0.00  0.08  0.00  0.92  0.00  0.00  0.00  0.00  0.00
  WSF200WS02003060        1.00   0.00  0.05  0.00  0.63  0.32  0.00  0.00  0.28  0.00
  1                       1.00   0.00  0.00  0.00  0.00  1.00  0.00  0.00  0.40  0.00
  2                       1.00   0.62  0.00  0.00  0.00  0.38  0.00  0.00  0.12  0.00
  3                       1.00   0.17  0.00  0.00  0.00  0.83  0.00  0.00  0.08  0.00
  4                       1.00   1.00  0.00  0.00  0.00  0.00  0.00  0.00  0.00  0.00
  
  
  *************************
  Conduit Surcharge Summary
  *************************
  
  ----------------------------------------------------------------------------
                                                           Hours        Hours 
                         --------- Hours Full --------   Above Full   Capacity
  Conduit                Both Ends  Upstream  Dnstream   Normal Flow   Limited
  ----------------------------------------------------------------------------
  WS02006229WS02006228        1.30      1.81      1.30      4.95         1.30
  WS02006256WS02006235        5.66      5.66      6.42      2.61         0.01
  WS02006252WS02006251        1.04      1.04      2.31      1.98         0.01
  WS02006251WS02006249        0.01      0.01      0.01      1.05         0.01
  WS02006249WS02006248        0.01      0.01      0.01      4.94         0.01
  WS02006247WS02006245        0.01      0.01      0.01      5.13         0.01
  WS02006245WS02006243        0.01      0.01      0.01      0.01         0.01
  WS02006243WS02006242        0.01      0.01      0.93      0.01         0.01
  WS02006242WS02006240        0.11      0.11      1.53      2.40         0.01
  WS02006240WS02006239        0.21      0.21      0.29      0.15         0.01
  WS02006239WS02006238        1.26      1.26      1.40      0.30         0.19
  WS02006238WS02006235        1.08      1.08      1.84      0.01         0.01
  WS02006235WS02006234        0.12      0.12      0.77      5.68         0.01
  WS02006234WS02006232        0.37      0.37      1.93      0.01         0.01
  WS02006232WS02006231        0.01      0.01      1.93      0.01         0.01
  WS02006231WS02006230        0.01      0.01      0.01      5.68         0.01
  WS02006230WS02006229        3.31      4.61      3.31      5.78         3.31
  WS02006228WS02006109        1.51      2.48      1.51      5.43         1.51
  WS02006112WS02006115        0.01      0.01      0.13      0.01         0.01
  WS02006111WS02006112        0.01      0.01      5.07      0.01         0.01
  WS02006110WS02006113        0.01      0.01      2.16      0.01         0.01
  WS02006109WS02006110        0.01      0.01      2.48      0.01         0.01
  WS02004404WS02004405        0.01      0.01      0.01      5.60         0.01
  WS02003072WS02003073        0.01      0.01      0.01      5.20         0.01
  YS02001759YS02001757        3.76      3.76      4.43      0.01         0.01
  YS02001762YS02001759        3.37      3.37      3.76      0.01         0.01
  YS02001765YS02001762        0.79      0.79      3.37      0.01         0.01
  YS02001770YS02001767        0.01      0.01      0.04      0.01         0.01
  YS02001774YS02001770        0.01      0.01      2.50      0.01         0.01
  YS02001779YS02001774        0.01      0.01      2.50      0.01         0.01
  YS02001649YS02001757        3.47      3.47      4.43      0.01         0.01
  YS02001767YS02001765        0.04      0.04      0.79      0.01         0.02
  YS02163301YS02001633        0.01      0.01      0.84      0.01         0.01
  YS02163601YS02164001        0.53      0.53      3.44      0.01         0.01
  YS02164001YS02001641        0.53      0.53      1.76      0.01         0.01
  YS02001641YS02001644        1.74      1.76      1.99      0.01         0.20
  YS02001647YS02001649        0.01      0.01      3.47      0.01         0.01
  YS02001633YS02163601        0.07      0.07      3.44      0.01         0.01
  YS02001644YS02001647        0.01      0.01      1.99      0.01         0.01
  YS02001754YS02001757        0.01      0.01      4.43      0.01         0.01
  YS02001652YS02001649        0.01      0.01      3.47      0.01         0.01
  YS02001793JiankangQianchi        0.01      0.01      0.70      0.01         0.01
  YS02001757CaochengTiaoxuchi        0.01      0.01      4.43      0.01         0.01
  
  
  ***************
  Pumping Summary
  ***************
  
  ---------------------------------------------------------------------------------------------------------
                                                  Min       Avg       Max     Total     Power    % Time Off
                        Percent   Number of      Flow      Flow      Flow    Volume     Usage    Pump Curve
  Pump                 Utilized   Start-Ups       LPS       LPS       LPS  10^6 ltr     Kw-hr    Low   High
  ---------------------------------------------------------------------------------------------------------
  CC-Pump-1               57.44           6      0.00    148.28    200.00     2.400      9.05    0.0   38.0
  CC-Pump-2               66.32           6      0.00    133.48    200.00     2.514      9.59    0.0   43.1
  JK-Pump-1               74.46           3      0.00    124.51    300.00     2.156     41.86    0.0    0.0
  JK-Pump-2               78.72           5      0.00    141.31    300.00     2.449     47.04    0.0    0.0
  XR-Pump-1               76.58           8      0.00     66.35     95.00     1.396     14.00    0.0    0.0
  XR-Pump-2               91.48           6      0.00     68.99     95.00     1.739     16.34    0.0    0.0
  XR-Pump-3               82.96           9      0.00     65.01     95.00     1.568     15.56    0.0    0.0
  XR-Pump-4               93.61           5      0.00     75.18     95.00     1.938     19.16    0.0    0.0
  

  Analysis begun on:  Fri Dec 24 14:58:12 2021
  Analysis ended on:  Fri Dec 24 14:58:15 2021
  Total elapsed time: 00:00:03