
  EPA STORM WATER MANAGEMENT MODEL - VERSION 5.1 (Build 5.3.0.dev0)
  --------------------------------------------------------------

  WARNING 04: minimum elevation drop used for Conduit WS02004404WS02004405
  WARNING 03: negative offset ignored for Link YS02001904YS02001907
  
  *********************************************************
  NOTE: The summary statistics displayed in this report are
  based on results found at every computational time step,  
  not just on results from each reporting time step.
  *********************************************************
  
  ****************
  Analysis Options
  ****************
  Flow Units ............... LPS
  Process Models:
    Rainfall/Runoff ........ YES
    RDII ................... NO
    Snowmelt ............... NO
    Groundwater ............ NO
    Flow Routing ........... YES
    Ponding Allowed ........ NO
    Water Quality .......... NO
  Infiltration Method ...... HORTON
  Flow Routing Method ...... DYNWAVE
  Surcharge Method ......... EXTRAN
  Starting Date ............ 08/28/2015 08:00:00
  Ending Date .............. 08/28/2015 15:50:00
  Antecedent Dry Days ...... 8.0
  Report Time Step ......... 00:01:00
  Wet Time Step ............ 00:01:00
  Dry Time Step ............ 00:01:00
  Routing Time Step ........ 5.00 sec
  Variable Time Step ....... YES
  Maximum Trials ........... 8
  Number of Threads ........ 4
  Head Tolerance ........... 0.001500 m
  
  
  **************************        Volume         Depth
  Runoff Quantity Continuity     hectare-m            mm
  **************************     ---------       -------
  Total Precipitation ......         3.299         7.222
  Evaporation Loss .........         0.000         0.000
  Infiltration Loss ........         0.835         1.829
  Surface Runoff ...........         1.533         3.357
  Final Storage ............         0.931         2.037
  Continuity Error (%) .....        -0.018
  
  
  **************************        Volume        Volume
  Flow Routing Continuity        hectare-m      10^6 ltr
  **************************     ---------     ---------
  Dry Weather Inflow .......         0.616         6.165
  Wet Weather Inflow .......         1.532        15.323
  Groundwater Inflow .......         0.000         0.000
  RDII Inflow ..............         0.000         0.000
  External Inflow ..........         0.102         1.024
  External Outflow .........         1.808        18.082
  Flooding Loss ............         0.148         1.479
  Evaporation Loss .........         0.000         0.000
  Exfiltration Loss ........         0.000         0.000
  Initial Stored Volume ....         0.076         0.761
  Final Stored Volume ......         0.464         4.636
  Continuity Error (%) .....        -3.979
  
  
  *************************
  Highest Continuity Errors
  *************************
  Node HS02004842 (24.59%)
  Node YS02001774 (22.10%)
  Node JK-storage (-19.52%)
  Node YS02001884 (18.62%)
  Node YSB1171 (5.53%)
  
  
  ***************************
  Time-Step Critical Elements
  ***************************
  Link 3 (43.35%)
  Link WS02006252WS02006251 (41.74%)
  Link WS02006238WS02006235 (6.75%)
  Link WS02006280WS02006229 (1.96%)
  Link WS02006229WS02006228 (1.07%)
  
  
  ********************************
  Highest Flow Instability Indexes
  ********************************
  Link WS02006113WS02006111 (39)
  Link WS02006111WS02006112 (21)
  Link YS02001779YS02001774 (15)
  Link YS02164001YS02001641 (15)
  Link YS02006558YS02006561 (15)
  
  
  *************************
  Routing Time Step Summary
  *************************
  Minimum Time Step           :     0.40 sec
  Average Time Step           :     0.89 sec
  Maximum Time Step           :     5.00 sec
  Percent in Steady State     :    -0.00
  Average Iterations per Step :     4.16
  Percent Not Converging      :    25.09
  
  
  ***************************
  Subcatchment Runoff Summary
  ***************************
  
  ------------------------------------------------------------------------------------------------------------------------------
                            Total      Total      Total      Total     Imperv       Perv      Total       Total     Peak  Runoff
                           Precip      Runon       Evap      Infil     Runoff     Runoff     Runoff      Runoff   Runoff   Coeff
  Subcatchment                 mm         mm         mm         mm         mm         mm         mm    10^6 ltr      LPS
  ------------------------------------------------------------------------------------------------------------------------------
  sub0                       7.22       0.00       0.00       0.51       5.45       0.00       5.45        0.00     1.87   0.755
  sub1                       7.22       0.00       0.00       0.79       5.17       0.00       5.17        0.03    10.07   0.716
  sub2                       7.22       0.00       0.00       2.67       3.64       0.00       3.64        0.03     8.96   0.504
  sub3                       7.22       0.00       0.00       2.67       3.61       0.00       3.61        0.08    18.60   0.499
  sub4                       7.22       0.00       0.00       0.79       5.03       0.00       5.03        0.10    21.02   0.696
  sub5                       7.22       0.00       0.00       0.51       5.40       0.00       5.40        0.06    17.91   0.748
  sub7                       7.22       0.00       0.00       0.65       5.32       0.00       5.32        0.02     6.25   0.736
  sub8                       7.22       0.00       0.00       0.65       5.31       0.00       5.31        0.03    11.07   0.735
  sub9                       7.22       0.00       0.00       0.65       5.31       0.00       5.31        0.03     8.21   0.735
  sub10                      7.22       0.00       0.00       0.58       5.35       0.00       5.35        0.06    17.84   0.741
  sub11                      7.22       0.00       0.00       0.58       5.37       0.00       5.37        0.06    20.80   0.743
  sub12                      7.22       0.00       0.00       0.94       5.09       0.00       5.09        0.04    17.39   0.705
  sub14                      7.22       0.00       0.00       0.65       5.30       0.00       5.30        0.05    16.06   0.734
  sub15                      7.22       0.00       0.00       2.17       4.08       0.00       4.08        0.07    21.83   0.565
  sub16                      7.22       0.00       0.00       2.38       3.92       0.00       3.92        0.04    15.34   0.543
  sub17                      7.22       0.00       0.00       2.31       3.98       0.00       3.98        0.03    12.43   0.551
  sub22                      7.22       0.00       0.00       3.11       3.33       0.00       3.33        0.21    71.06   0.461
  sub23                      7.22       0.00       0.00       2.67       3.68       0.00       3.68        0.18    60.47   0.510
  sub60                      7.22       0.00       0.00       0.87       3.78       0.00       3.78        1.14   112.07   0.523
  sub61                      7.22       0.00       0.00       1.23       3.98       0.00       3.98        1.23   138.95   0.551
  sub62                      7.22       0.00       0.00       0.58       4.28       0.00       4.28        1.32   142.49   0.593
  sub63                      7.22       0.00       0.00       2.09       3.52       0.00       3.52        1.07   129.10   0.488
  sub64                      7.22       0.00       0.00       1.08       3.61       0.00       3.61        1.10   106.54   0.500
  sub65                      7.22       0.00       0.00       0.94       3.66       0.00       3.66        1.13   108.21   0.507
  sub66                      7.22       0.00       0.00       2.09       3.14       0.00       3.14        0.96    97.28   0.435
  sub67                      7.22       0.00       0.00       0.58       4.65       0.00       4.65        1.44   180.98   0.644
  sub68                      7.22       0.00       0.00       1.01       4.22       0.00       4.22        1.30   153.18   0.584
  sub69                      7.22       0.00       0.00       1.08       4.50       0.00       4.50        1.05   150.30   0.622
  sub70                      7.22       4.59       0.00       4.02       5.68       0.00       5.68        1.30   127.11   0.481
  sub71                      7.22       0.00       0.00       0.58       4.12       0.00       4.12        0.97    99.87   0.570
  sub72                      7.22       0.00       0.00       0.51       3.01       0.00       3.01        0.61    48.25   0.416
  sub73                      7.22       5.52       0.00       4.33       5.90       0.00       5.90        1.39   110.44   0.463
  sub74                      7.22       0.00       0.00       5.42       1.35       0.00       1.35        0.54    83.48   0.187
  
  
  ******************
  Node Depth Summary
  ******************
  
  ---------------------------------------------------------------------------------
                                 Average  Maximum  Maximum  Time of Max    Reported
                                   Depth    Depth      HGL   Occurrence   Max Depth
  Node                 Type       Meters   Meters   Meters  days hr:min      Meters
  ---------------------------------------------------------------------------------
  WS02001211           JUNCTION     0.65     0.78     5.62     0  02:41        0.78
  WS02001212           JUNCTION     0.37     0.49     5.56     0  02:42        0.49
  WS02001213           JUNCTION     0.61     0.75     5.51     0  02:43        0.75
  WS02003069           JUNCTION     0.44     0.57     5.16     0  02:44        0.57
  WS02003072           JUNCTION     0.50     0.63     5.00     0  02:44        0.63
  WS02003073           JUNCTION     0.30     0.39     4.45     0  02:45        0.39
  WS02003060           JUNCTION     0.39     0.51     5.44     0  02:43        0.51
  WS02003066           JUNCTION     0.24     0.30     5.85     0  02:45        0.30
  WS02003059           JUNCTION     0.67     0.80     5.49     0  02:43        0.80
  WS02003067           JUNCTION     0.58     0.70     6.02     0  02:45        0.70
  WS02004401           JUNCTION     0.69     0.85     6.85     0  02:41        0.85
  WS02004402           JUNCTION     0.72     0.88     6.84     0  02:42        0.88
  WS02004403           JUNCTION     0.74     0.89     6.82     0  02:42        0.89
  WS02004404           JUNCTION     0.81     0.96     6.81     0  02:42        0.96
  WS02004406           JUNCTION     0.82     0.96     6.79     0  02:42        0.96
  WS02004409           JUNCTION     0.51     0.67     6.44     0  02:44        0.67
  WS02004410           JUNCTION     0.52     0.68     6.40     0  02:44        0.68
  WS02004411           JUNCTION     0.54     0.69     6.37     0  02:44        0.69
  WS02004412           JUNCTION     0.55     0.70     6.34     0  02:45        0.70
  WS02004413           JUNCTION     0.71     0.86     6.33     0  02:45        0.86
  WS02004405           JUNCTION     0.81     0.96     6.81     0  02:42        0.96
  WS02006109           JUNCTION     0.77     0.97     7.59     0  02:39        0.97
  WS02006110           JUNCTION     0.76     0.92     7.51     0  02:39        0.92
  WS02006111           JUNCTION     0.22     0.29     6.99     0  02:39        0.29
  WS02006112           JUNCTION     0.86     1.06     6.94     0  02:41        1.05
  WS02006113           JUNCTION     0.35     0.45     7.35     0  02:39        0.45
  WS02006115           JUNCTION     0.58     0.75     6.89     0  02:41        0.75
  WS02006116           JUNCTION     0.66     0.83     6.87     0  02:41        0.83
  WS02006230           JUNCTION     0.75     1.02     7.76     0  02:40        1.02
  WS02006231           JUNCTION     0.50     0.69     7.81     0  02:40        0.69
  WS02006232           JUNCTION     0.64     0.82     7.86     0  02:40        0.82
  WS02006234           JUNCTION     0.56     0.76     7.92     0  02:40        0.76
  WS02006235           JUNCTION     0.60     0.79     7.96     0  02:41        0.79
  WS02006238           JUNCTION     0.62     0.82     7.97     0  02:41        0.82
  WS02006240           JUNCTION     0.53     0.74     8.04     0  02:41        0.74
  WS02006242           JUNCTION     0.59     0.81     8.08     0  02:41        0.81
  WS02006243           JUNCTION     0.47     0.70     8.12     0  02:41        0.70
  WS02006245           JUNCTION     0.45     0.67     8.16     0  02:41        0.67
  WS02006247           JUNCTION     0.47     0.68     8.18     0  02:41        0.68
  WS02006248           JUNCTION     0.42     0.62     8.20     0  02:41        0.61
  WS02006249           JUNCTION     0.45     0.63     8.22     0  02:41        0.63
  WS02006239           JUNCTION     0.58     0.79     8.00     0  02:41        0.79
  WS02006251           JUNCTION     0.44     0.66     8.33     0  02:40        0.66
  WS02006252           JUNCTION     0.40     0.59     8.83     0  04:22        0.59
  WS02006253           JUNCTION     0.47     0.68     8.33     0  02:41        0.68
  WS02006256           JUNCTION     1.02     2.35     9.28     0  00:00        1.21
  WS02004138           JUNCTION     0.15     0.19     7.44     0  01:10        0.19
  WS02004407           JUNCTION     0.23     0.30     6.61     0  02:42        0.30
  WS02006228           JUNCTION     0.77     1.01     7.66     0  02:39        1.01
  WS02006229           JUNCTION     0.75     1.01     7.70     0  02:38        1.01
  WS02006280           JUNCTION     0.06     0.17     8.44     0  02:16        0.17
  WS02006284           JUNCTION     0.35     0.51     8.91     0  02:16        0.51
  WS02006287           JUNCTION     0.08     0.25     9.20     0  02:15        0.25
  WSF200               JUNCTION     0.23     0.30     5.54     0  02:46        0.30
  HS02004901           JUNCTION     0.11     0.26    10.08     0  02:13        0.26
  HS02004881           JUNCTION     0.01     0.03     9.06     0  02:15        0.03
  HS02004876           JUNCTION     0.04     0.11     9.14     0  02:11        0.11
  HS02004870           JUNCTION     0.01     0.05     9.34     0  02:16        0.05
  HS02004862           JUNCTION     0.01     0.06     9.44     0  02:17        0.06
  HS02004856           JUNCTION     0.07     0.11     9.54     0  02:16        0.11
  HS02004852           JUNCTION     0.01     0.03     9.55     0  02:17        0.03
  HS02004848           JUNCTION     0.01     0.03     9.63     0  02:16        0.03
  HS02004842           JUNCTION     0.33     0.36     9.63     0  02:16        0.36
  HS02004837           JUNCTION     0.03     0.05     9.63     0  02:16        0.05
  HS02004830           JUNCTION     0.04     0.07     9.54     0  02:16        0.07
  HS02004824           JUNCTION     0.02     0.05     9.45     0  02:19        0.05
  HS02004817           JUNCTION     0.43     0.55     9.40     0  02:16        0.55
  HS02004807           JUNCTION     0.11     0.23     9.40     0  02:16        0.23
  HS02004802           JUNCTION     0.15     0.26     9.39     0  02:16        0.26
  HS02004799           JUNCTION     0.10     0.30     9.51     0  02:14        0.30
  HS02004792           JUNCTION     0.03     0.12     9.64     0  02:13        0.12
  HS02004788           JUNCTION     0.02     0.09     9.99     0  02:14        0.09
  HS02004785           JUNCTION     0.04     0.16    10.06     0  02:14        0.16
  HS02004777           JUNCTION     0.14     0.28    10.08     0  02:13        0.28
  HS02004770           JUNCTION     0.11     0.25    10.08     0  02:13        0.25
  HS02004480           JUNCTION     0.07     0.23     9.47     0  02:14        0.23
  HS02004479           JUNCTION     0.10     0.27     9.47     0  02:14        0.27
  HS02004478           JUNCTION     0.05     0.15     9.38     0  02:15        0.15
  YS02001745           JUNCTION     0.29     0.61     8.13     0  05:10        0.61
  YS02001748           JUNCTION     0.68     1.05     8.12     0  05:10        1.05
  YS02001751           JUNCTION     0.87     2.20     9.08     0  03:46        1.23
  YS02001754           JUNCTION     1.12     2.14     8.75     0  03:27        1.49
  YS02001762           JUNCTION     1.31     1.77     8.17     0  03:46        1.70
  YS02001765           JUNCTION     1.27     1.78     8.23     0  03:46        1.71
  YS02001767           JUNCTION     1.23     1.82     8.31     0  03:27        1.74
  YS02001770           JUNCTION     1.23     1.92     8.42     0  03:46        1.83
  YS02001774           JUNCTION     1.29     2.00     8.43     0  03:46        1.92
  YS02001779           JUNCTION     1.05     1.68     8.37     0  03:27        1.68
  YS02001882           JUNCTION     0.33     0.56     7.28     0  02:52        0.56
  YS02001884           JUNCTION     0.42     0.66     7.27     0  02:51        0.66
  YS02001759           JUNCTION     1.35     1.83     8.19     0  03:46        1.71
  YS02001887           JUNCTION     0.50     0.74     7.27     0  02:52        0.74
  YS02001890           JUNCTION     0.53     0.77     7.27     0  02:52        0.77
  YS02001898           JUNCTION     0.30     0.52     7.26     0  02:53        0.52
  YS02001901           JUNCTION     0.42     0.65     7.26     0  02:53        0.65
  YS02001904           JUNCTION     0.39     0.62     7.25     0  02:49        0.62
  YS02001907           JUNCTION     0.72     0.97     7.26     0  02:50        0.96
  YS02001910           JUNCTION     0.51     0.75     7.25     0  02:55        0.75
  YS02001915           JUNCTION     0.31     0.54     7.25     0  02:54        0.54
  YS02001918           JUNCTION     0.10     0.19     7.25     0  02:53        0.19
  YS02001619           JUNCTION     0.83     1.32     8.25     0  05:13        1.18
  YS02001629           JUNCTION     1.18     1.64     8.19     0  05:13        1.55
  YS02001641           JUNCTION     1.29     1.69     8.12     0  05:13        1.63
  YS02001644           JUNCTION     1.29     1.67     8.10     0  05:13        1.63
  YS02001652           JUNCTION     1.13     1.86     8.46     0  03:36        1.49
  YS02001655           JUNCTION     0.89     1.92     8.77     0  03:57        1.25
  YS02001920           JUNCTION     0.19     0.26     7.27     0  02:56        0.26
  YS02001923           JUNCTION     0.08     0.10     7.36     0  03:01        0.10
  YS02001926           JUNCTION     0.16     0.20     7.65     0  03:01        0.20
  YS02001929           JUNCTION     0.08     0.10     7.80     0  03:01        0.10
  YS02001658           JUNCTION     0.63     0.99     8.13     0  05:14        0.98
  YS02001661           JUNCTION     0.40     0.70     8.10     0  05:15        0.69
  YS02001664           JUNCTION     0.08     0.16     8.08     0  05:16        0.14
  YS02001622           JUNCTION     0.85     1.34     8.24     0  05:13        1.20
  YS02001633           JUNCTION     1.27     1.71     8.16     0  05:13        1.63
  YS02001649           JUNCTION     1.32     1.71     8.10     0  03:46        1.68
  YS02001757           JUNCTION     1.45     1.92     8.18     0  03:52        1.82
  YS02001895           JUNCTION     0.29     0.52     7.26     0  02:53        0.52
  YS02001625           JUNCTION     1.13     1.61     8.21     0  05:13        1.50
  YS02163301           JUNCTION     1.21     1.66     8.18     0  05:13        1.58
  YS02163601           JUNCTION     1.32     1.74     8.14     0  05:13        1.69
  YS02164001           JUNCTION     1.27     1.67     8.13     0  05:13        1.62
  YS02001647           JUNCTION     1.12     1.51     8.12     0  03:28        1.46
  YSB1154              JUNCTION     0.24     0.42     9.48     0  02:14        0.42
  YSB6556              JUNCTION     0.14     0.31     9.48     0  02:14        0.31
  YSB1174              JUNCTION     0.19     0.37     9.48     0  02:14        0.37
  YSB1171              JUNCTION     0.39     0.57     9.48     0  02:14        0.57
  YS02006553           JUNCTION     0.73     0.97     7.25     0  02:49        0.97
  YS02006561           JUNCTION     0.16     0.28     6.94     0  02:56        0.27
  YS02006556           JUNCTION     0.70     0.94     7.25     0  02:58        0.93
  YS02006558           JUNCTION     0.74     0.98     7.25     0  02:56        0.98
  YS02001783           JUNCTION     0.31     0.73     6.87     0  02:36        0.70
  YS02001784           JUNCTION     0.35     0.79     6.86     0  02:36        0.76
  YS02001786           JUNCTION     0.31     0.77     6.80     0  02:36        0.74
  YS02001788           JUNCTION     0.26     0.79     6.77     0  02:36        0.79
  YS02001790           JUNCTION     0.35     1.96     7.60     0  02:33        1.07
  YS02001791           JUNCTION     0.32     2.72     8.19     0  02:32        1.18
  YS02001793           JUNCTION     0.43     2.71     7.55     0  02:30        1.78
  WS02004139           JUNCTION     0.59     0.72     5.63     0  02:41        0.72
  WSC                  OUTFALL      0.30     0.39     1.06     0  02:46        0.39
  3                    OUTFALL      0.08     0.23     6.23     0  00:00        0.20
  4                    OUTFALL      0.03     0.13     7.13     0  02:41        0.13
  5                    OUTFALL      0.00     0.00     5.00     0  00:00        0.00
  JK-storage           STORAGE      1.60     5.80     6.60     0  02:34        5.80
  CC-storage           STORAGE      0.68     1.04     8.04     0  05:13        1.04
  XR-storage           STORAGE      6.60     7.72     5.72     0  03:37        7.72
  
  
  *******************
  Node Inflow Summary
  *******************
  
  -------------------------------------------------------------------------------------------------
                                  Maximum  Maximum                  Lateral       Total        Flow
                                  Lateral    Total  Time of Max      Inflow      Inflow     Balance
                                   Inflow   Inflow   Occurrence      Volume      Volume       Error
  Node                 Type           LPS      LPS  days hr:min    10^6 ltr    10^6 ltr     Percent
  -------------------------------------------------------------------------------------------------
  WS02001211           JUNCTION      7.35   387.67     0  01:29       0.207        6.84       0.524
  WS02001212           JUNCTION      0.00   387.67     0  01:30           0        6.81       0.273
  WS02001213           JUNCTION      0.00   387.67     0  01:30           0        6.79       0.379
  WS02003069           JUNCTION      0.32   917.75     0  02:44     0.00902        14.7       0.216
  WS02003072           JUNCTION      0.00   917.75     0  02:44           0        14.6       0.261
  WS02003073           JUNCTION      1.82   919.81     0  02:45      0.0514        14.6       0.292
  WS02003060           JUNCTION     16.53   917.18     0  02:43       0.466        14.7       0.208
  WS02003066           JUNCTION      0.00   536.61     0  02:45           0         7.5       0.065
  WS02003059           JUNCTION      0.00   387.68     0  01:25           0        6.76       0.560
  WS02003067           JUNCTION      0.00   536.61     0  02:45           0        7.51       0.133
  WS02004401           JUNCTION      0.00   540.44     0  02:41           0        7.76       0.308
  WS02004402           JUNCTION      0.00   540.20     0  02:42           0        7.74       0.287
  WS02004403           JUNCTION      0.00   539.53     0  02:42           0        7.72       0.258
  WS02004404           JUNCTION      0.16   539.47     0  02:42     0.00457         7.7       0.191
  WS02004406           JUNCTION      0.00   539.55     0  02:42           0        7.67       0.465
  WS02004409           JUNCTION      0.00   538.92     0  02:42           0        7.62       0.246
  WS02004410           JUNCTION      0.00   537.87     0  02:43           0         7.6       0.273
  WS02004411           JUNCTION      0.00   537.17     0  02:43           0        7.58       0.276
  WS02004412           JUNCTION      0.00   536.76     0  02:45           0        7.56       0.293
  WS02004413           JUNCTION      0.00   536.77     0  02:45           0        7.54       0.428
  WS02004405           JUNCTION      0.04   539.53     0  02:42     0.00107        7.69       0.288
  WS02006109           JUNCTION      1.23   536.13     0  02:39      0.0347        7.87       0.289
  WS02006110           JUNCTION      0.00   536.13     0  02:39           0        7.84       0.275
  WS02006111           JUNCTION      0.00   557.38     0  02:40           0        7.81       0.065
  WS02006112           JUNCTION     12.43   546.97     0  02:39      0.0341        7.84       0.389
  WS02006113           JUNCTION      0.00   536.84     0  02:39           0        7.82       0.150
  WS02006115           JUNCTION      0.00   548.25     0  02:38           0        7.81       0.303
  WS02006116           JUNCTION      0.00   541.76     0  02:41           0        7.79       0.288
  WS02006230           JUNCTION     10.28   399.09     0  03:40        0.29        6.76       0.232
  WS02006231           JUNCTION      0.00   389.34     0  04:22           0        6.49       0.212
  WS02006232           JUNCTION      0.00   389.28     0  04:22           0         6.5       0.270
  WS02006234           JUNCTION      0.00   390.11     0  04:21           0        6.51       0.158
  WS02006235           JUNCTION      0.00   389.90     0  04:21           0        6.55       0.185
  WS02006238           JUNCTION      0.00   331.29     0  05:20           0        4.82       0.181
  WS02006240           JUNCTION      0.00   334.02     0  05:20           0        4.82       0.327
  WS02006242           JUNCTION      0.00   337.40     0  03:31           0        4.83       0.391
  WS02006243           JUNCTION      0.00   346.02     0  03:31           0        4.83       0.006
  WS02006245           JUNCTION      0.00   349.78     0  03:31           0        4.84       0.310
  WS02006247           JUNCTION      0.00   353.18     0  03:31           0        4.85       0.217
  WS02006248           JUNCTION      0.00   357.09     0  03:31           0        4.86       0.161
  WS02006249           JUNCTION      0.00   435.54     0  02:40           0        5.58       0.260
  WS02006239           JUNCTION      0.00   333.38     0  05:20           0        4.82       0.288
  WS02006251           JUNCTION      0.08   436.12     0  02:40     0.00217        5.63       0.253
  WS02006252           JUNCTION      0.00   400.00     0  02:40           0         5.4       0.010
  WS02006253           JUNCTION      1.87    56.80     0  02:15     0.00441       0.228       3.667
  WS02006256           JUNCTION      0.00   600.00     0  00:00           0        4.54       0.050
  WS02004138           JUNCTION      0.00   380.00     0  01:10           0        6.67       0.073
  WS02004407           JUNCTION      0.00   539.16     0  02:42           0        7.63       0.113
  WS02006228           JUNCTION      0.00   534.90     0  02:39           0        7.85       0.211
  WS02006229           JUNCTION      0.00   534.82     0  02:39           0        7.86       0.171
  WS02006280           JUNCTION      0.00   283.63     0  02:16           0        1.11       0.006
  WS02006284           JUNCTION      0.10   283.60     0  02:16      0.0027        1.12       0.099
  WS02006287           JUNCTION      0.00   283.48     0  02:15           0        1.11       0.065
  WSF200               JUNCTION      0.00   536.62     0  02:46           0        7.49       0.063
  HS02004901           JUNCTION     15.34    15.34     0  02:09       0.041      0.0412       4.460
  HS02004881           JUNCTION      6.25    55.32     0  02:15      0.0179        0.19       0.188
  HS02004876           JUNCTION     10.07    49.33     0  02:16      0.0344       0.173       0.309
  HS02004870           JUNCTION     11.07    39.43     0  02:15      0.0339       0.139       0.077
  HS02004862           JUNCTION      9.16    29.04     0  02:16      0.0396       0.105       0.162
  HS02004856           JUNCTION      8.21    19.93     0  02:15      0.0255      0.0668       2.203
  HS02004852           JUNCTION      0.00    12.20     0  02:16           0      0.0413       0.127
  HS02004848           JUNCTION     18.60    18.60     0  02:19      0.0812      0.0812       0.054
  HS02004842           JUNCTION      0.00     7.06     0  02:28           0      0.0529      32.607
  HS02004837           JUNCTION     24.19    30.02     0  02:15       0.238       0.278       0.293
  HS02004830           JUNCTION      0.15    30.15     0  02:16     0.00423       0.268       0.462
  HS02004824           JUNCTION     21.07    50.96     0  02:19       0.106       0.373       0.144
  HS02004817           JUNCTION      0.60    51.55     0  02:19      0.0169        0.39       4.468
  HS02004807           JUNCTION     20.80    70.59     0  02:17      0.0623       0.435       0.980
  HS02004802           JUNCTION      0.00    71.07     0  02:18           0       0.431       0.948
  HS02004799           JUNCTION     16.06   181.64     0  02:13      0.0505       0.596       0.385
  HS02004792           JUNCTION     71.34   165.81     0  02:13       0.218       0.546       0.074
  HS02004788           JUNCTION     23.50    96.42     0  02:13       0.117       0.329       0.118
  HS02004785           JUNCTION      0.15    73.21     0  02:13     0.00423       0.214       0.227
  HS02004777           JUNCTION      0.03    73.51     0  02:12    0.000846       0.214       2.481
  HS02004770           JUNCTION     60.47    74.61     0  02:10       0.175       0.215       1.462
  HS02004480           JUNCTION      0.00   214.33     0  02:14           0       0.698       0.109
  HS02004479           JUNCTION      0.00    33.36     0  02:15           0       0.115       0.639
  HS02004478           JUNCTION      0.00   283.47     0  02:15           0        1.11       0.054
  YS02001745           JUNCTION    112.07   188.44     0  05:09        1.14        1.35       0.160
  YS02001748           JUNCTION      0.04   392.50     0  03:26     0.00127        1.43       0.749
  YS02001751           JUNCTION      0.01   402.68     0  03:42     0.00031        1.21       1.153
  YS02001754           JUNCTION      0.26   178.95     0  03:25     0.00733        1.13       2.010
  YS02001762           JUNCTION      0.00   168.42     0  02:38           0        1.25       1.685
  YS02001765           JUNCTION      0.00   166.61     0  02:38           0        1.25       1.949
  YS02001767           JUNCTION      0.54   163.52     0  02:33      0.0151        1.27       2.823
  YS02001770           JUNCTION    142.64   171.74     0  02:38        1.32        1.36       2.271
  YS02001774           JUNCTION      0.00    61.78     0  03:27           0       0.113      28.368
  YS02001779           JUNCTION      0.01    61.61     0  03:27    0.000141      0.0504      39.375
  YS02001882           JUNCTION      0.00     5.21     0  02:07           0     0.00727      33.570
  YS02001884           JUNCTION      0.00    14.83     0  02:09           0      0.0279      22.882
  YS02001759           JUNCTION    138.99   306.44     0  02:38        1.23        2.44       0.936
  YS02001887           JUNCTION    181.43   183.20     0  02:46        1.45        1.46       0.516
  YS02001890           JUNCTION      0.00   181.92     0  02:46           0        1.43       0.576
  YS02001898           JUNCTION      0.00   183.42     0  02:46           0        1.42       0.176
  YS02001901           JUNCTION      0.00   184.20     0  02:46           0        1.42       0.415
  YS02001904           JUNCTION      0.00   184.25     0  02:45           0        1.42       0.385
  YS02001907           JUNCTION      0.00   341.41     0  02:59           0        3.07       0.743
  YS02001910           JUNCTION      0.00   154.60     0  02:57           0        1.66       0.642
  YS02001915           JUNCTION     99.89   152.93     0  02:56       0.973        1.66       0.299
  YS02001918           JUNCTION      0.00    51.67     0  03:01           0        0.69       0.194
  YS02001619           JUNCTION     97.28    97.28     0  02:57       0.962       0.962       0.957
  YS02001629           JUNCTION      0.00   180.66     0  03:49           0       0.909       2.616
  YS02001641           JUNCTION      0.00   218.90     0  03:04           0        1.93       1.083
  YS02001644           JUNCTION    106.58   322.48     0  03:02         1.1           3       0.872
  YS02001652           JUNCTION      0.00   187.02     0  03:04           0        1.05       1.904
  YS02001655           JUNCTION      0.15   357.89     0  03:12     0.00434        1.13       1.590
  YS02001920           JUNCTION      2.87    51.11     0  03:01      0.0809       0.693       0.331
  YS02001923           JUNCTION      0.04    48.24     0  03:01     0.00106       0.612       0.059
  YS02001926           JUNCTION      0.05    48.29     0  03:01     0.00147       0.613       0.413
  YS02001929           JUNCTION     48.25    48.25     0  03:01       0.612       0.612       0.058
  YS02001658           JUNCTION      0.00   364.37     0  03:38           0        1.35       0.890
  YS02001661           JUNCTION      0.00   230.93     0  05:15           0        1.28       0.322
  YS02001664           JUNCTION    129.10   129.10     0  02:43        1.07        1.07       0.011
  YS02001622           JUNCTION      0.00   130.17     0  03:51           0        0.97       2.781
  YS02001633           JUNCTION    108.41   220.81     0  03:03        1.13        1.99       1.624
  YS02001649           JUNCTION      0.00   495.40     0  03:02           0        3.95       0.939
  YS02001757           JUNCTION      0.00   828.62     0  03:00           0         7.4       1.263
  YS02001895           JUNCTION      0.00   182.47     0  02:46           0        1.42       0.284
  YS02001625           JUNCTION      0.00   179.69     0  03:49           0        0.96       4.166
  YS02163301           JUNCTION      0.00   116.29     0  02:34           0       0.883       2.756
  YS02163601           JUNCTION      0.11   220.17     0  03:04      0.0031        1.95       1.551
  YS02164001           JUNCTION      0.00   220.04     0  03:04           0        1.93       1.038
  YS02001647           JUNCTION      0.00   321.91     0  03:02           0        2.96       0.867
  YSB1154              JUNCTION     17.91    17.91     0  02:13      0.0612      0.0625       2.365
  YSB6556              JUNCTION      0.00    17.93     0  02:14           0      0.0634       2.007
  YSB1174              JUNCTION     17.39    17.39     0  02:08      0.0445      0.0454       2.906
  YSB1171              JUNCTION      0.00    33.26     0  02:14           0       0.114       5.851
  YS02006553           JUNCTION      0.00   338.93     0  03:00           0        3.05       0.481
  YS02006561           JUNCTION      0.00   522.00     0  02:51           0        4.32      -0.002
  YS02006556           JUNCTION      0.00   341.13     0  02:58           0        3.06       0.348
  YS02006558           JUNCTION    154.06   498.67     0  02:55        1.32        4.35       0.125
  YS02001783           JUNCTION      0.00   493.64     0  02:56           0        4.32       0.041
  YS02001784           JUNCTION      1.06   497.95     0  02:36      0.0299        4.35       0.065
  YS02001786           JUNCTION      0.06   495.62     0  02:37     0.00159        4.35       0.063
  YS02001788           JUNCTION      0.07   501.20     0  02:37       0.002        4.35       0.037
  YS02001790           JUNCTION      0.15   491.14     0  02:36     0.00437        4.35       0.042
  YS02001791           JUNCTION      0.00   498.55     0  03:40           0        4.35       0.018
  YS02001793           JUNCTION      0.00   533.74     0  02:31           0        4.35       0.003
  WS02004139           JUNCTION      0.32   380.37     0  01:10     0.00905        6.67       0.585
  WSC                  OUTFALL       0.00   920.16     0  02:46           0        14.6       0.000
  3                    OUTFALL       0.00   597.65     0  00:00           0        2.78       0.000
  4                    OUTFALL       0.00   153.15     0  02:41           0       0.702       0.000
  5                    OUTFALL       0.00     0.00     0  00:00           0           0       0.000 ltr
  JK-storage           STORAGE       0.00   701.45     0  02:30           0         4.5     -16.334
  CC-storage           STORAGE       0.00   828.60     0  03:00           0         7.3       0.561
  XR-storage           STORAGE     380.78   380.78     0  02:55        7.57        8.17      -0.002
  
  
  **********************
  Node Surcharge Summary
  **********************
  
  Surcharging occurs when water rises above the top of the highest conduit.
  ---------------------------------------------------------------------
                                               Max. Height   Min. Depth
                                   Hours       Above Crown    Below Rim
  Node                 Type      Surcharged         Meters       Meters
  ---------------------------------------------------------------------
  WS02006109           JUNCTION        2.61          0.151        1.669
  WS02006110           JUNCTION        0.15          0.012        1.838
  WS02006112           JUNCTION        0.66          0.056        1.624
  WS02006232           JUNCTION        2.75          0.120        1.360
  WS02006234           JUNCTION        0.37          0.040        1.200
  WS02006235           JUNCTION        1.73          0.083        1.207
  WS02006238           JUNCTION        2.27          0.101        1.329
  WS02006240           JUNCTION        0.37          0.034        1.356
  WS02006242           JUNCTION        1.82          0.082        0.738
  WS02006239           JUNCTION        0.65          0.055        1.235
  WS02006252           JUNCTION        3.16          0.193        0.907
  WS02006256           JUNCTION        0.01          1.050        0.000
  WS02006228           JUNCTION        2.39          0.178        2.022
  YS02001751           JUNCTION        2.44          1.200        0.000
  YS02001754           JUNCTION        4.61          1.091        0.059
  YS02001762           JUNCTION        5.40          0.771        0.379
  YS02001765           JUNCTION        5.37          0.778        0.322
  YS02001767           JUNCTION        5.34          0.822        0.208
  YS02001770           JUNCTION        5.30          0.894        0.026
  YS02001774           JUNCTION        5.39          1.004        0.046
  YS02001779           JUNCTION        4.25          0.680        0.000
  YS02001759           JUNCTION        5.43          0.826        0.384
  YS02001619           JUNCTION        1.70          0.320        0.290
  YS02001629           JUNCTION        1.78          0.259        0.211
  YS02001641           JUNCTION        5.38          0.687        0.413
  YS02001644           JUNCTION        5.39          0.667        0.253
  YS02001652           JUNCTION        4.89          0.833        0.297
  YS02001655           JUNCTION        2.79          0.922        0.278
  YS02001622           JUNCTION        2.14          0.337        0.283
  YS02001633           JUNCTION        5.36          0.686        0.374
  YS02001649           JUNCTION        5.41          0.713        0.337
  YS02001757           JUNCTION        5.49          0.923        0.287
  YS02001625           JUNCTION        5.15          0.607        0.173
  YS02163301           JUNCTION        5.33          0.659        0.371
  YS02163601           JUNCTION        5.40          0.743        0.337
  YS02164001           JUNCTION        5.37          0.674        0.426
  YS02001647           JUNCTION        5.10          0.513        0.387
  YS02001790           JUNCTION        1.09          1.157        0.000
  YS02001791           JUNCTION        1.13          1.920        0.000
  YS02001793           JUNCTION        1.21          1.714        0.886
  
  
  *********************
  Node Flooding Summary
  *********************
  
  Flooding refers to all water that overflows a node, whether it ponds or not.
  --------------------------------------------------------------------------
                                                             Total   Maximum
                                 Maximum   Time of Max       Flood    Ponded
                        Hours       Rate    Occurrence      Volume     Depth
  Node                 Flooded       LPS   days hr:min    10^6 ltr    Meters
  --------------------------------------------------------------------------
  WS02006256              0.01    406.11      0  00:00       0.001     0.000
  YS02001751              0.01    170.92      0  03:46       0.000     0.000
  YS02001779              0.01     19.27      0  03:42       0.000     0.000
  YS02001790              0.01    119.97      0  02:33       0.000     0.000
  YS02001791              0.01    227.80      0  02:32       0.000     0.000
  JK-storage              1.02    478.71      0  02:50       0.834     0.000
  XR-storage              1.46    243.27      0  06:50       0.644     0.000
  
  
  **********************
  Storage Volume Summary
  **********************
  
  --------------------------------------------------------------------------------------------------
                         Average     Avg  Evap Exfil       Maximum     Max    Time of Max    Maximum
                          Volume    Pcnt  Pcnt  Pcnt        Volume    Pcnt     Occurrence    Outflow
  Storage Unit           1000 m3    Full  Loss  Loss       1000 m3    Full    days hr:min        LPS
  --------------------------------------------------------------------------------------------------
  JK-storage               0.080      28     0     0         0.291     100       0  02:34     600.00
  CC-storage               1.904      12     0     0         2.897      18       0  05:13     400.00
  XR-storage               0.792      86     0     0         0.926     100       0  03:37     380.00
  
  
  ***********************
  Outfall Loading Summary
  ***********************
  
  -----------------------------------------------------------
                         Flow       Avg       Max       Total
                         Freq      Flow      Flow      Volume
  Outfall Node           Pcnt       LPS       LPS    10^6 ltr
  -----------------------------------------------------------
  WSC                   99.99    586.85    920.16      14.597
  3                     81.17    174.31    597.65       2.783
  4                     47.13     63.39    153.15       0.702
  5                      0.00      0.00      0.00       0.000
  -----------------------------------------------------------
  System                57.07    824.56   1219.56      18.082
  
  
  ********************
  Link Flow Summary
  ********************
  
  -----------------------------------------------------------------------------
                                 Maximum  Time of Max   Maximum    Max/    Max/
                                  |Flow|   Occurrence   |Veloc|    Full    Full
  Link                 Type          LPS  days hr:min     m/sec    Flow   Depth
  -----------------------------------------------------------------------------
  WS02003066WSF200     CONDUIT    536.62     0  02:46      2.78    0.09    0.23
  WS02006287WS02006284 CONDUIT    283.51     0  02:16      1.80    0.13    0.25
  WS02006284WS02006280 CONDUIT    283.63     0  02:16      2.04    0.12    0.23
  WS02006280WS02006229 CONDUIT    283.63     0  02:16      3.29    0.06    0.17
  WS02006229WS02006228 CONDUIT    534.90     0  02:39      1.06    1.77    1.00
  WS02006256WS02006235 CONDUIT    177.52     0  00:01      2.73    1.88    1.00
  WS02006253WS02006251 CONDUIT     55.97     0  02:13      0.55    0.17    0.95
  WS02006252WS02006251 CONDUIT    400.72     0  03:31      3.19    1.47    1.00
  WS02006251WS02006249 CONDUIT    435.54     0  02:40      1.19    1.26    0.92
  WS02006249WS02006248 CONDUIT    357.09     0  03:31      1.15    1.96    0.87
  WS02006248WS02006247 CONDUIT    353.18     0  03:31      1.12    0.77    0.92
  WS02006247WS02006245 CONDUIT    349.78     0  03:31      1.08    2.77    0.96
  WS02006245WS02006243 CONDUIT    346.02     0  03:31      1.10    1.02    0.98
  WS02006243WS02006242 CONDUIT    337.40     0  03:31      1.00    0.72    1.00
  WS02006242WS02006240 CONDUIT    334.02     0  05:20      0.94    1.33    1.00
  WS02006240WS02006239 CONDUIT    333.38     0  05:20      0.98    1.05    1.00
  WS02006239WS02006238 CONDUIT    331.29     0  05:20      0.90    1.06    1.00
  WS02006238WS02006235 CONDUIT    329.12     0  05:20      1.32    0.73    1.00
  WS02006235WS02006234 CONDUIT    390.11     0  04:21      1.05    4.12    1.00
  WS02006234WS02006232 CONDUIT    389.28     0  04:22      1.17    0.79    1.00
  WS02006232WS02006231 CONDUIT    389.34     0  04:22      1.06    0.82    0.99
  WS02006231WS02006230 CONDUIT    388.82     0  03:40      1.33    5.90    0.95
  WS02006230WS02006229 CONDUIT    399.29     0  03:41      1.04    8.89    1.00
  WS02006228WS02006109 CONDUIT    534.90     0  02:39      1.06    2.34    1.00
  WS02006116WS02004401 CONDUIT    540.44     0  02:41      0.77    0.74    0.84
  WS02006115WS02006116 CONDUIT    541.76     0  02:41      0.85    0.70    0.76
  WS02006113WS02006111 CONDUIT    557.38     0  02:40      2.46    0.67    0.46
  WS02006112WS02006115 CONDUIT    548.25     0  02:38      0.76    0.32    0.87
  WS02006111WS02006112 CONDUIT    541.45     0  02:39      1.51    0.26    0.67
  WS02006110WS02006113 CONDUIT    536.84     0  02:39      1.27    0.49    0.78
  WS02006109WS02006110 CONDUIT    536.13     0  02:39      1.07    1.03    1.00
  WS02004411WS02004412 CONDUIT    536.76     0  02:45      0.92    0.76    0.69
  WS02004401WS02004402 CONDUIT    540.20     0  02:42      0.75    0.65    0.86
  WS02004413WS02003067 CONDUIT    536.61     0  02:45      1.11    0.23    0.59
  WS02004412WS02004413 CONDUIT    536.77     0  02:45      0.82    0.36    0.78
  WS02004410WS02004411 CONDUIT    537.17     0  02:43      0.94    0.73    0.69
  WS02004409WS02004410 CONDUIT    537.87     0  02:43      0.96    0.70    0.67
  WS02004407WS02004409 CONDUIT    538.92     0  02:42      1.44    0.19    0.48
  WS02004406WS02004407 CONDUIT    539.16     0  02:42      1.04    0.24    0.63
  WS02004405WS02004406 CONDUIT    539.55     0  02:42      0.70    1.06    0.96
  WS02004404WS02004405 CONDUIT    539.49     0  02:42      0.70    5.29    0.96
  WS02004403WS02004404 CONDUIT    539.31     0  02:42      0.71    0.39    0.93
  WS02004402WS02004403 CONDUIT    539.53     0  02:42      0.73    0.78    0.89
  WS02004139WS02001211 CONDUIT    380.32     0  01:29      0.80    0.48    0.58
  WS02004138WS02004139 CONDUIT    380.05     0  01:10      3.34    0.08    0.43
  WS02003067WS02003066 CONDUIT    536.61     0  02:45      1.21    0.17    0.42
  WS02001213WS02003059 CONDUIT    387.68     0  01:25      0.80    0.64    0.76
  WS02001212WS02001213 CONDUIT    387.67     0  01:30      1.32    0.60    0.46
  WS02001211WS02001212 CONDUIT    387.67     0  01:30      0.78    0.30    0.64
  WS02003072WS02003073 CONDUIT    917.99     0  02:45      1.71    1.98    0.48
  WS02003069WS02003072 CONDUIT    917.75     0  02:44      1.61    0.44    0.50
  WS02003060WS02003069 CONDUIT    917.43     0  02:44      1.86    0.36    0.45
  WS02003059WS02003060 CONDUIT    387.67     0  01:27      0.95    0.25    0.65
  HS02004901HS02004770 CONDUIT     14.45     0  02:12      0.06    0.05    0.36
  HS02004876HS02004881 CONDUIT     49.56     0  02:16      0.73    0.53    0.10
  HS02004870HS02004876 CONDUIT     39.41     0  02:16      0.50    0.03    0.11
  HS02004842HS02004848 CONDUIT      7.06     0  02:28      0.04    0.00    0.28
  HS02004837HS02004842 CONDUIT      7.30     0  02:29      0.41    0.00    0.30
  HS02004830HS02004837 CONDUIT     30.00     0  02:16      0.49    0.03    0.09
  HS02004824HS02004830 CONDUIT     30.15     0  02:17      0.53    0.04    0.08
  HS02004817HS02004824 CONDUIT     50.95     0  02:19      0.17    0.02    0.43
  HS02004770HS02004777 CONDUIT     73.48     0  02:12      0.28    0.13    0.38
  HS02004799HS02004480 CONDUIT    181.38     0  02:14      0.70    0.23    0.37
  HS02004792HS02004799 CONDUIT    165.72     0  02:13      0.80    0.10    0.30
  HS02004788HS02004792 CONDUIT     96.34     0  02:14      0.94    0.06    0.15
  HS02004785HS02004788 CONDUIT     73.12     0  02:14      0.60    0.55    0.17
  HS02004777HS02004785 CONDUIT     73.06     0  02:13      0.34    0.09    0.31
  HS02004480HS02004478 CONDUIT    214.31     0  02:14      1.10    0.90    0.28
  HS02004479HS02004480 CONDUIT     33.64     0  02:16      0.16    0.03    0.36
  HS02004862HS02004870 CONDUIT     29.00     0  02:17      0.54    0.03    0.08
  HS02004848HS02004852 CONDUIT     12.20     0  02:16      0.36    0.01    0.05
  HS02004856HS02004862 CONDUIT     19.90     0  02:16      0.40    0.02    0.07
  HS02004852HS02004856 CONDUIT     12.17     0  02:17      0.17    0.01    0.10
  HS02004802HS02004478 CONDUIT     71.63     0  02:19      0.35    0.06    0.30
  HS02004478WS02006287 CONDUIT    283.48     0  02:15      1.50    0.08    0.21
  HS02004817HS02004807 CONDUIT     52.37     0  02:21      0.14    0.03    0.56
  HS02004807HS02004802 CONDUIT     71.07     0  02:18      0.30    0.14    0.34
  YS02001759YS02001757 CONDUIT    306.41     0  02:38      0.39    0.22    1.00
  YS02001762YS02001759 CONDUIT    169.30     0  02:38      0.22    0.20    1.00
  YS02001765YS02001762 CONDUIT    168.42     0  02:38      0.23    0.16    1.00
  YS02001770YS02001767 CONDUIT    162.98     0  02:33      0.31    0.65    1.00
  YS02001774YS02001770 CONDUIT     61.78     0  03:27      0.14    0.04    1.00
  YS02001779YS02001774 CONDUIT     61.60     0  03:27      0.08    0.03    1.00
  YS02001649YS02001757 CONDUIT    495.07     0  03:02      0.63    0.30    1.00
  YS02001767YS02001765 CONDUIT    166.61     0  02:38      0.26    0.21    1.00
  YS02006561YS02001783 CONDUIT    493.64     0  02:56      1.95    0.26    0.62
  YS02001783YS02001784 CONDUIT    496.89     0  02:36      1.39    0.68    0.93
  YS02001784YS02001785 CONDUIT    495.56     0  02:37      1.49    1.15    0.97
  YS02001788YS02001790 CONDUIT    490.98     0  02:36      2.03    0.36    0.99
  YS02001790YS02001791 CONDUIT    498.55     0  03:40      2.39    0.54    1.00
  YS02001791YS02001793 CONDUIT    533.74     0  02:31      4.76    0.23    1.00
  YS02001910YS02001907 CONDUIT    157.07     0  02:59      0.49    0.09    0.85
  YS02001786YS02001788 CONDUIT    501.13     0  02:37      1.97    0.97    0.96
  YS02001915YS02001910 CONDUIT    154.60     0  02:57      0.45    0.08    0.64
  YS02001918YS02001915 CONDUIT     53.73     0  03:09      0.44    0.03    0.36
  YS02001923YS02001920 CONDUIT     48.24     0  03:01      0.53    0.02    0.18
  YS02001926YS02001923 CONDUIT     48.20     0  03:01      0.58    0.07    0.16
  YS02001929YS02001926 CONDUIT     48.23     0  03:01      0.63    0.02    0.15
  YS02001920YS02001918 CONDUIT     51.67     0  03:01      0.53    0.05    0.22
  YS02001629YS02163301 CONDUIT    116.29     0  02:34      0.15    0.14    1.00
  YS02001619YS02001622 CONDUIT    130.17     0  03:51      0.71    0.19    1.00
  YS02001622YS02001625 CONDUIT    179.69     0  03:49      0.30    0.10    1.00
  YS02001625YS02001629 CONDUIT    180.66     0  03:49      0.28    0.09    1.00
  YS02163301YS02001633 CONDUIT    115.01     0  03:04      0.15    0.11    1.00
  YS02163601YS02164001 CONDUIT    220.04     0  03:04      0.28    0.19    1.00
  YS02164001YS02001641 CONDUIT    218.90     0  03:04      0.28    0.30    1.00
  YS02001641YS02001644 CONDUIT    218.26     0  03:04      0.28    0.71    1.00
  YS02001647YS02001649 CONDUIT    334.04     0  02:44      0.43    0.18    1.00
  YS02006553YS02006556 CONDUIT    341.13     0  02:58      0.45    0.29    0.93
  YS02006556YS02006558 CONDUIT    347.27     0  02:55      0.45    0.27    0.96
  YSB6556YSB1171       CONDUIT     18.25     0  02:17      0.07    0.02    0.63
  YS02001907YS02006553 CONDUIT    338.93     0  03:00      0.38    0.40    1.00
  YS02006558YS02006561 CONDUIT    522.00     0  02:51      2.82    1.15    0.63
  YS02001633YS02163601 CONDUIT    220.06     0  03:04      0.28    0.23    1.00
  YS02001644YS02001647 CONDUIT    321.91     0  03:02      0.41    0.19    1.00
  YS02001745YS02001748 CONDUIT    230.74     0  05:09      1.53    0.09    0.72
  YS02001748YS02001751 CONDUIT    402.67     0  03:42      1.18    0.20    1.00
  YS02001751YS02001754 CONDUIT    178.69     0  03:25      1.02    0.09    1.00
  YS02001754YS02001757 CONDUIT    185.76     0  03:07      0.33    0.07    1.00
  YS02001882YS02001884 CONDUIT      5.21     0  02:07      0.06    0.01    0.58
  YS02001884YS02001887 CONDUIT     14.83     0  02:09      0.06    0.02    0.67
  YS02001890YS02001895 CONDUIT    182.47     0  02:46      0.34    0.09    0.64
  YS02001895YS02001898 CONDUIT    183.42     0  02:46      0.50    0.32    0.50
  YS02001898YS02001901 CONDUIT    184.20     0  02:46      0.39    0.12    0.58
  YS02001901YS02001904 CONDUIT    184.25     0  02:45      0.35    0.29    0.64
  YS02001904YS02001907 CONDUIT    184.94     0  02:58      0.28    0.06    0.79
  YS02001887YS02001890 CONDUIT    181.92     0  02:46      0.30    0.31    0.73
  YS02001652YS02001649 CONDUIT    198.60     0  03:05      0.34    0.10    1.00
  YS02001655YS02001652 CONDUIT    187.02     0  03:04      1.09    0.09    1.00
  YS02001658YS02001655 CONDUIT    357.74     0  03:12      1.36    0.15    0.99
  YS02001661YS02001658 CONDUIT    292.48     0  03:34      1.59    0.11    0.76
  YS02001664YS02001661 CONDUIT    129.10     0  02:43      1.34    0.04    0.40
  YSB1154YSB6556       CONDUIT     17.93     0  02:14      0.19    0.03    0.52
  YSB1174YSB1171       CONDUIT     16.15     0  02:09      0.07    0.02    0.64
  YSB1171HS02004479    CONDUIT     33.36     0  02:15      0.54    0.02    0.50
  HS02004881HS02006253 CONDUIT     55.32     0  02:15      1.91    0.01    0.26
  YS02001793JiankangQianchi CONDUIT    701.45     0  02:30     12.18    0.06    1.00
  YS02001757CaochengTiaoxuchi CONDUIT    828.60     0  03:00      1.77    0.36    1.00
  WSF200WS02003060     CONDUIT    536.36     0  02:45      1.94    0.12    0.34
  1                    CONDUIT    920.16     0  02:46      3.25    0.32    0.39
  2                    CONDUIT    153.15     0  02:41      5.45    0.37    0.42
  3                    CONDUIT    597.65     0  00:00     10.05    0.95    0.86
  4                    CONDUIT      0.00     0  00:00      0.00    0.00    0.00
  CC-Pump-1            PUMP       200.00     0  02:40              1.00
  CC-Pump-2            PUMP       200.00     0  02:16              1.00
  JK-Pump-1            PUMP       300.00     0  00:00              1.00
  JK-Pump-2            PUMP       300.00     0  00:00              1.00
  XR-Pump-1            PUMP        95.00     0  00:00              1.00
  XR-Pump-2            PUMP        95.00     0  00:20              1.00
  XR-Pump-3            PUMP        95.00     0  00:00              1.00
  XR-Pump-4            PUMP        95.00     0  00:00              1.00
  
  
  ***************************
  Flow Classification Summary
  ***************************
  
  -------------------------------------------------------------------------------------
                      Adjusted    ---------- Fraction of Time in Flow Class ---------- 
                       /Actual         Up    Down  Sub   Sup   Up    Down  Norm  Inlet 
  Conduit               Length    Dry  Dry   Dry   Crit  Crit  Crit  Crit  Ltd   Ctrl  
  -------------------------------------------------------------------------------------
  WS02003066WSF200        1.00   0.04  0.03  0.00  0.00  0.93  0.00  0.00  0.61  0.00
  WS02006287WS02006284    1.00   0.03  0.02  0.00  0.69  0.26  0.00  0.00  0.76  0.00
  WS02006284WS02006280    1.00   0.04  0.00  0.00  0.00  0.00  0.00  0.96  0.00  0.00
  WS02006280WS02006229    1.00   0.04  0.00  0.00  0.00  0.00  0.00  0.96  0.00  0.00
  WS02006229WS02006228    1.00   0.00  0.00  0.00  0.98  0.00  0.00  0.02  0.00  0.00
  WS02006256WS02006235    1.00   0.00  0.00  0.00  1.00  0.00  0.00  0.00  0.00  0.00
  WS02006253WS02006251    1.00   0.02  0.01  0.00  0.96  0.00  0.00  0.00  0.00  0.00
  WS02006252WS02006251    1.00   0.07  0.00  0.00  0.00  0.00  0.93  0.00  0.00  0.00
  WS02006251WS02006249    1.00   0.00  0.00  0.00  1.00  0.00  0.00  0.00  0.25  0.00
  WS02006249WS02006248    1.00   0.00  0.02  0.00  0.92  0.00  0.06  0.00  0.00  0.00
  WS02006248WS02006247    1.00   0.02  0.00  0.00  0.97  0.00  0.00  0.01  0.16  0.00
  WS02006247WS02006245    1.00   0.02  0.00  0.00  0.96  0.00  0.00  0.02  0.00  0.00
  WS02006245WS02006243    1.00   0.02  0.00  0.00  0.94  0.00  0.00  0.05  0.02  0.00
  WS02006243WS02006242    1.00   0.01  0.00  0.00  0.99  0.00  0.00  0.00  0.27  0.00
  WS02006242WS02006240    1.00   0.01  0.00  0.00  0.99  0.00  0.00  0.00  0.00  0.00
  WS02006240WS02006239    1.00   0.00  0.00  0.00  0.95  0.00  0.00  0.04  0.02  0.00
  WS02006239WS02006238    1.00   0.00  0.00  0.00  1.00  0.00  0.00  0.00  0.01  0.00
  WS02006238WS02006235    1.00   0.00  0.00  0.00  1.00  0.00  0.00  0.00  0.00  0.00
  WS02006235WS02006234    1.00   0.00  0.00  0.00  0.95  0.00  0.05  0.00  0.00  0.00
  WS02006234WS02006232    1.00   0.00  0.00  0.00  1.00  0.00  0.00  0.00  0.03  0.00
  WS02006232WS02006231    1.00   0.00  0.00  0.00  0.99  0.00  0.01  0.00  0.00  0.00
  WS02006231WS02006230    1.00   0.00  0.00  0.00  0.73  0.00  0.27  0.00  0.00  0.00
  WS02006230WS02006229    1.00   0.00  0.00  0.00  0.98  0.00  0.00  0.02  0.01  0.00
  WS02006228WS02006109    1.00   0.00  0.00  0.00  1.00  0.00  0.00  0.00  0.00  0.00
  WS02006116WS02004401    1.00   0.02  0.00  0.00  0.98  0.00  0.00  0.00  0.00  0.00
  WS02006115WS02006116    1.00   0.02  0.00  0.00  0.97  0.00  0.00  0.01  0.01  0.00
  WS02006113WS02006111    1.00   0.02  0.00  0.00  0.00  0.98  0.00  0.00  0.11  0.00
  WS02006112WS02006115    1.00   0.02  0.00  0.00  0.98  0.00  0.00  0.00  0.00  0.00
  WS02006111WS02006112    1.00   0.02  0.00  0.00  0.98  0.00  0.00  0.00  0.98  0.00
  WS02006110WS02006113    1.00   0.02  0.00  0.00  0.98  0.00  0.00  0.00  0.00  0.00
  WS02006109WS02006110    1.00   0.00  0.02  0.00  0.98  0.00  0.00  0.00  0.00  0.00
  WS02004411WS02004412    1.00   0.05  0.00  0.00  0.95  0.00  0.00  0.00  0.00  0.00
  WS02004401WS02004402    1.00   0.02  0.00  0.00  0.98  0.00  0.00  0.00  0.00  0.00
  WS02004413WS02003067    1.00   0.05  0.01  0.00  0.00  0.00  0.93  0.00  0.00  0.00
  WS02004412WS02004413    1.00   0.05  0.00  0.00  0.95  0.00  0.00  0.00  0.03  0.00
  WS02004410WS02004411    1.00   0.05  0.00  0.00  0.95  0.00  0.00  0.00  0.01  0.00
  WS02004409WS02004410    1.00   0.05  0.00  0.00  0.95  0.00  0.00  0.00  0.00  0.00
  WS02004407WS02004409    1.00   0.05  0.00  0.00  0.95  0.00  0.00  0.00  0.80  0.00
  WS02004406WS02004407    1.00   0.00  0.05  0.00  0.95  0.00  0.00  0.00  0.00  0.00
  WS02004405WS02004406    1.00   0.00  0.00  0.00  1.00  0.00  0.00  0.00  0.02  0.00
  WS02004404WS02004405    1.00   0.00  0.00  0.00  1.00  0.00  0.00  0.00  0.00  0.00
  WS02004403WS02004404    1.00   0.00  0.02  0.00  0.98  0.00  0.00  0.00  0.02  0.00
  WS02004402WS02004403    1.00   0.02  0.00  0.00  0.98  0.00  0.00  0.00  0.00  0.00
  WS02004139WS02001211    1.00   0.00  0.00  0.00  0.99  0.00  0.01  0.00  0.00  0.00
  WS02004138WS02004139    1.00   0.00  0.00  0.00  0.99  0.01  0.00  0.00  1.00  0.00
  WS02003067WS02003066    1.00   0.07  0.01  0.00  0.93  0.00  0.00  0.00  0.00  0.00
  WS02001213WS02003059    1.00   0.00  0.00  0.00  0.99  0.00  0.00  0.00  0.00  0.00
  WS02001212WS02001213    1.00   0.01  0.00  0.00  0.88  0.00  0.11  0.00  0.00  0.00
  WS02001211WS02001212    1.00   0.00  0.01  0.00  0.99  0.00  0.00  0.00  0.00  0.00
  WS02003072WS02003073    1.00   0.00  0.00  0.00  0.00  0.00  0.00  1.00  0.00  0.00
  WS02003069WS02003072    1.00   0.00  0.00  0.00  0.99  0.01  0.00  0.00  0.20  0.00
  WS02003060WS02003069    1.00   0.00  0.00  0.00  0.99  0.01  0.00  0.00  0.09  0.00
  WS02003059WS02003060    1.00   0.00  0.00  0.00  0.99  0.01  0.00  0.00  0.01  0.00
  HS02004901HS02004770    1.00   0.04  0.00  0.00  0.96  0.00  0.00  0.00  0.02  0.00
  HS02004876HS02004881    1.00   0.02  0.00  0.00  0.98  0.00  0.00  0.00  0.00  0.00
  HS02004870HS02004876    1.00   0.01  0.00  0.00  0.99  0.00  0.00  0.00  0.95  0.00
  HS02004842HS02004848    1.00   0.00  0.04  0.00  0.96  0.00  0.00  0.00  0.67  0.00
  HS02004837HS02004842    1.00   0.00  0.00  0.00  0.99  0.01  0.00  0.00  0.11  0.00
  HS02004830HS02004837    1.00   0.00  0.00  0.00  1.00  0.00  0.00  0.00  0.99  0.00
  HS02004824HS02004830    1.00   0.00  0.00  0.00  1.00  0.00  0.00  0.00  0.00  0.00
  HS02004817HS02004824    1.00   0.00  0.00  0.00  1.00  0.00  0.00  0.00  1.00  0.00
  HS02004770HS02004777    1.00   0.00  0.04  0.00  0.96  0.00  0.00  0.00  0.07  0.00
  HS02004799HS02004480    1.00   0.00  0.02  0.00  0.95  0.00  0.03  0.00  0.00  0.00
  HS02004792HS02004799    1.00   0.00  0.00  0.00  0.99  0.01  0.00  0.00  0.98  0.00
  HS02004788HS02004792    1.00   0.00  0.00  0.00  0.98  0.02  0.00  0.00  0.98  0.00
  HS02004785HS02004788    1.00   0.00  0.00  0.00  1.00  0.00  0.00  0.00  0.00  0.00
  HS02004777HS02004785    1.00   0.00  0.00  0.00  1.00  0.00  0.00  0.00  0.20  0.00
  HS02004480HS02004478    1.00   0.04  0.00  0.00  0.74  0.00  0.00  0.22  0.00  0.00
  HS02004479HS02004480    1.00   0.02  0.00  0.00  0.98  0.00  0.00  0.00  0.15  0.00
  HS02004862HS02004870    1.00   0.00  0.00  0.00  1.00  0.00  0.00  0.00  0.06  0.00
  HS02004848HS02004852    1.00   0.04  0.00  0.00  0.96  0.00  0.00  0.00  0.71  0.00
  HS02004856HS02004862    1.00   0.00  0.06  0.00  0.94  0.00  0.00  0.00  0.75  0.00
  HS02004852HS02004856    1.00   0.04  0.01  0.00  0.96  0.00  0.00  0.00  0.83  0.00
  HS02004802HS02004478    1.00   0.04  0.00  0.00  0.96  0.00  0.00  0.00  0.01  0.00
  HS02004478WS02006287    1.00   0.05  0.00  0.00  0.84  0.11  0.00  0.00  0.74  0.00
  HS02004817HS02004807    1.00   0.00  0.04  0.00  0.96  0.00  0.00  0.00  0.00  0.00
  HS02004807HS02004802    1.00   0.04  0.00  0.00  0.96  0.00  0.00  0.00  0.01  0.00
  YS02001759YS02001757    1.00   0.00  0.00  0.00  1.00  0.00  0.00  0.00  0.17  0.00
  YS02001762YS02001759    1.00   0.00  0.00  0.00  1.00  0.00  0.00  0.00  0.04  0.00
  YS02001765YS02001762    1.00   0.00  0.00  0.00  1.00  0.00  0.00  0.00  0.21  0.00
  YS02001770YS02001767    1.00   0.00  0.00  0.00  1.00  0.00  0.00  0.00  0.00  0.00
  YS02001774YS02001770    1.00   0.00  0.04  0.00  0.95  0.00  0.00  0.00  0.06  0.00
  YS02001779YS02001774    1.00   0.00  0.00  0.00  1.00  0.00  0.00  0.00  0.26  0.00
  YS02001649YS02001757    1.00   0.00  0.00  0.00  1.00  0.00  0.00  0.00  0.19  0.00
  YS02001767YS02001765    1.00   0.00  0.00  0.00  1.00  0.00  0.00  0.00  0.01  0.00
  YS02006561YS02001783    1.00   0.06  0.00  0.00  0.17  0.77  0.00  0.00  0.71  0.00
  YS02001783YS02001784    1.00   0.00  0.06  0.00  0.94  0.00  0.00  0.00  0.00  0.00
  YS02001784YS02001785    1.00   0.00  0.00  0.00  1.00  0.00  0.00  0.00  0.25  0.00
  YS02001788YS02001790    1.00   0.00  0.00  0.00  0.26  0.74  0.00  0.00  0.69  0.00
  YS02001790YS02001791    1.00   0.00  0.00  0.00  0.21  0.79  0.00  0.00  0.49  0.00
  YS02001791YS02001793    1.00   0.00  0.00  0.00  0.23  0.77  0.00  0.00  0.03  0.00
  YS02001910YS02001907    1.00   0.00  0.00  0.00  0.98  0.00  0.00  0.02  0.13  0.00
  YS02001786YS02001788    1.00   0.00  0.00  0.00  0.25  0.75  0.00  0.00  0.00  0.00
  YS02001915YS02001910    1.00   0.00  0.00  0.00  1.00  0.00  0.00  0.00  0.23  0.00
  YS02001918YS02001915    1.00   0.00  0.01  0.00  0.99  0.00  0.00  0.00  0.69  0.00
  YS02001923YS02001920    1.00   0.00  0.00  0.00  1.00  0.00  0.00  0.00  1.00  0.00
  YS02001926YS02001923    1.00   0.00  0.03  0.00  0.00  0.00  0.97  0.00  0.00  0.00
  YS02001929YS02001926    1.00   0.00  0.04  0.00  0.96  0.00  0.00  0.00  0.87  0.00
  YS02001920YS02001918    1.00   0.00  0.01  0.00  0.99  0.00  0.00  0.00  0.00  0.00
  YS02001629YS02163301    1.00   0.05  0.00  0.00  0.94  0.00  0.00  0.00  0.00  0.00
  YS02001619YS02001622    1.00   0.04  0.00  0.00  0.96  0.00  0.00  0.00  0.00  0.00
  YS02001622YS02001625    1.00   0.04  0.00  0.00  0.96  0.00  0.00  0.00  0.12  0.00
  YS02001625YS02001629    1.00   0.04  0.02  0.00  0.92  0.00  0.01  0.00  0.00  0.00
  YS02163301YS02001633    1.00   0.00  0.05  0.00  0.95  0.00  0.00  0.00  0.00  0.00
  YS02163601YS02164001    1.00   0.00  0.03  0.00  0.97  0.00  0.00  0.00  0.00  0.00
  YS02164001YS02001641    1.00   0.01  0.02  0.00  0.97  0.00  0.00  0.00  0.07  0.00
  YS02001641YS02001644    1.00   0.00  0.01  0.00  0.99  0.00  0.00  0.00  0.00  0.00
  YS02001647YS02001649    1.00   0.00  0.06  0.00  0.94  0.00  0.00  0.00  0.01  0.00
  YS02006553YS02006556    1.00   0.02  0.00  0.00  0.98  0.00  0.00  0.00  0.03  0.00
  YS02006556YS02006558    1.00   0.00  0.00  0.00  1.00  0.00  0.00  0.00  0.00  0.00
  YSB6556YSB1171          1.00   0.02  0.02  0.00  0.96  0.00  0.00  0.00  0.00  0.00
  YS02001907YS02006553    1.00   0.00  0.02  0.00  0.98  0.00  0.00  0.00  0.00  0.00
  YS02006558YS02006561    1.00   0.06  0.00  0.00  0.00  0.94  0.00  0.00  0.61  0.00
  YS02001633YS02163601    1.00   0.00  0.01  0.00  0.99  0.00  0.00  0.00  0.19  0.00
  YS02001644YS02001647    1.00   0.00  0.06  0.00  0.94  0.00  0.00  0.00  0.00  0.00
  YS02001745YS02001748    1.00   0.00  0.00  0.00  0.89  0.01  0.00  0.10  0.10  0.00
  YS02001748YS02001751    1.00   0.00  0.00  0.00  0.98  0.02  0.00  0.00  0.23  0.00
  YS02001751YS02001754    1.00   0.00  0.00  0.00  0.93  0.00  0.00  0.07  0.01  0.00
  YS02001754YS02001757    1.00   0.00  0.00  0.00  0.99  0.01  0.00  0.00  0.26  0.00
  YS02001882YS02001884    1.00   0.05  0.00  0.00  0.95  0.00  0.00  0.00  0.00  0.00
  YS02001884YS02001887    1.00   0.03  0.01  0.00  0.96  0.00  0.00  0.00  0.00  0.00
  YS02001890YS02001895    1.00   0.00  0.05  0.00  0.94  0.00  0.00  0.00  0.00  0.00
  YS02001895YS02001898    1.00   0.06  0.00  0.00  0.94  0.00  0.01  0.00  0.00  0.00
  YS02001898YS02001901    1.00   0.05  0.00  0.00  0.94  0.00  0.00  0.00  0.02  0.00
  YS02001901YS02001904    1.00   0.05  0.00  0.00  0.95  0.00  0.00  0.00  0.00  0.00
  YS02001904YS02001907    1.00   0.00  0.05  0.00  0.95  0.00  0.00  0.00  0.00  0.00
  YS02001887YS02001890    1.00   0.00  0.00  0.00  0.98  0.00  0.02  0.00  0.00  0.00
  YS02001652YS02001649    1.00   0.00  0.00  0.00  1.00  0.00  0.00  0.00  0.25  0.00
  YS02001655YS02001652    1.00   0.00  0.00  0.00  0.93  0.00  0.00  0.07  0.01  0.00
  YS02001658YS02001655    1.00   0.00  0.05  0.00  0.93  0.03  0.00  0.00  0.08  0.00
  YS02001661YS02001658    1.00   0.05  0.00  0.00  0.90  0.06  0.00  0.00  0.10  0.00
  YS02001664YS02001661    1.00   0.04  0.00  0.00  0.82  0.15  0.00  0.00  0.78  0.00
  YSB1154YSB6556          1.00   0.04  0.00  0.00  0.96  0.00  0.00  0.00  0.02  0.00
  YSB1174YSB1171          1.00   0.02  0.01  0.00  0.97  0.00  0.00  0.00  0.00  0.00
  YSB1171HS02004479       1.00   0.02  0.00  0.00  0.98  0.00  0.00  0.00  0.13  0.00
  HS02004881HS02006253    1.00   0.03  0.00  0.00  0.79  0.01  0.00  0.18  0.60  0.00
  YS02001793JiankangQianchi    1.00   0.00  0.00  0.00  0.39  0.61  0.00  0.00  0.17  0.00
  YS02001757CaochengTiaoxuchi    1.00   0.00  0.07  0.00  0.93  0.00  0.00  0.00  0.00  0.00
  WSF200WS02003060        1.00   0.00  0.04  0.00  0.66  0.31  0.00  0.00  0.29  0.00
  1                       1.00   0.00  0.00  0.00  0.00  1.00  0.00  0.00  0.41  0.00
  2                       1.00   0.52  0.00  0.00  0.00  0.47  0.00  0.00  0.08  0.00
  3                       1.00   0.19  0.00  0.00  0.00  0.81  0.00  0.00  0.03  0.00
  4                       1.00   1.00  0.00  0.00  0.00  0.00  0.00  0.00  0.00  0.00
  
  
  *************************
  Conduit Surcharge Summary
  *************************
  
  ----------------------------------------------------------------------------
                                                           Hours        Hours 
                         --------- Hours Full --------   Above Full   Capacity
  Conduit                Both Ends  Upstream  Dnstream   Normal Flow   Limited
  ----------------------------------------------------------------------------
  WS02006229WS02006228        2.39      2.80      2.39      4.49         2.39
  WS02006256WS02006235        5.69      5.69      7.65      1.82         0.01
  WS02006252WS02006251        2.09      2.09      3.16      2.88         0.01
  WS02006251WS02006249        0.01      0.01      0.01      2.09         0.01
  WS02006249WS02006248        0.01      0.01      0.01      4.37         0.01
  WS02006247WS02006245        0.01      0.01      0.01      4.78         0.01
  WS02006245WS02006243        0.01      0.01      0.01      0.03         0.01
  WS02006243WS02006242        0.04      0.04      1.82      0.01         0.01
  WS02006242WS02006240        0.37      0.37      2.34      3.12         0.01
  WS02006240WS02006239        0.54      0.54      0.65      0.05         0.01
  WS02006239WS02006238        2.14      2.15      2.27      0.36         0.27
  WS02006238WS02006235        2.01      2.01      2.64      0.01         0.01
  WS02006235WS02006234        0.37      0.37      1.73      5.71         0.01
  WS02006234WS02006232        0.63      0.63      2.75      0.01         0.01
  WS02006232WS02006231        0.01      0.01      2.75      0.01         0.01
  WS02006231WS02006230        0.01      0.01      0.01      5.67         0.01
  WS02006230WS02006229        3.98      4.35      3.98      5.75         3.98
  WS02006228WS02006109        2.61      3.35      2.61      5.19         2.61
  WS02006112WS02006115        0.01      0.01      0.66      0.01         0.01
  WS02006111WS02006112        0.01      0.01      4.61      0.01         0.01
  WS02006110WS02006113        0.01      0.01      3.07      0.01         0.01
  WS02006109WS02006110        0.15      0.15      3.35      0.16         0.01
  WS02004405WS02004406        0.01      0.01      0.01      0.27         0.01
  WS02004404WS02004405        0.01      0.01      0.01      5.67         0.01
  WS02003072WS02003073        0.01      0.01      0.01      5.11         0.01
  YS02001759YS02001757        5.43      5.43      5.49      0.01         0.01
  YS02001762YS02001759        5.40      5.40      5.43      0.01         0.02
  YS02001765YS02001762        5.37      5.37      5.40      0.01         0.01
  YS02001770YS02001767        5.34      5.34      5.34      0.01         0.91
  YS02001774YS02001770        5.30      5.30      5.39      0.01         0.01
  YS02001779YS02001774        4.25      4.25      5.39      0.01         0.01
  YS02001649YS02001757        5.41      5.41      5.49      0.01         0.01
  YS02001767YS02001765        5.34      5.34      5.37      0.01         0.02
  YS02001784YS02001785        0.01      0.01      0.01      0.67         0.01
  YS02001788YS02001790        0.01      0.01      1.09      0.01         0.01
  YS02001790YS02001791        1.09      1.09      1.13      0.01         0.01
  YS02001791YS02001793        1.13      1.13      1.25      0.01         0.01
  YS02001629YS02163301        5.30      5.30      5.33      0.01         0.01
  YS02001619YS02001622        1.70      1.70      2.14      0.01         0.03
  YS02001622YS02001625        2.14      2.14      5.15      0.01         0.01
  YS02001625YS02001629        1.78      1.78      5.15      0.01         0.01
  YS02163301YS02001633        5.33      5.33      5.38      0.01         0.01
  YS02163601YS02164001        5.37      5.37      5.40      0.01         0.01
  YS02164001YS02001641        5.37      5.37      5.38      0.01         0.01
  YS02001641YS02001644        5.38      5.38      5.39      0.01         0.81
  YS02001647YS02001649        5.10      5.10      5.41      0.01         0.01
  YS02001907YS02006553        0.73      0.73      0.98      0.01         0.01
  YS02006558YS02006561        0.01      0.01      0.01      0.46         0.01
  YS02001633YS02163601        5.36      5.36      5.40      0.01         0.01
  YS02001644YS02001647        5.10      5.10      5.39      0.01         0.01
  YS02001748YS02001751        0.11      0.11      2.44      0.01         0.01
  YS02001751YS02001754        2.44      2.44      4.61      0.01         0.01
  YS02001754YS02001757        5.08      5.08      5.49      0.01         0.01
  YS02001652YS02001649        5.12      5.12      5.41      0.01         0.01
  YS02001655YS02001652        2.79      2.79      4.89      0.01         0.01
  YS02001658YS02001655        0.01      0.01      2.79      0.01         0.01
  YS02001793JiankangQianchi        1.21      1.21      1.88      0.01         0.01
  YS02001757CaochengTiaoxuchi        0.49      0.49      5.49      0.01         0.01
  3                           0.01      0.01      0.01      0.01         0.01
  
  
  ***************
  Pumping Summary
  ***************
  
  ---------------------------------------------------------------------------------------------------------
                                                  Min       Avg       Max     Total     Power    % Time Off
                        Percent   Number of      Flow      Flow      Flow    Volume     Usage    Pump Curve
  Pump                 Utilized   Start-Ups       LPS       LPS       LPS  10^6 ltr     Kw-hr    Low   High
  ---------------------------------------------------------------------------------------------------------
  CC-Pump-1               59.58           3      0.00    159.27    200.00     2.700      7.28    0.0    9.3
  CC-Pump-2               67.58           6      0.00    139.08    200.00     2.705      7.60    0.0   13.8
  JK-Pump-1               80.86           4      0.00    138.57    300.00     2.266     33.70    0.0    0.0
  JK-Pump-2               80.85           8      0.00    136.74    300.00     2.275     32.36    0.0    0.0
  XR-Pump-1               82.98           6      0.00     66.88     95.00     1.653     16.44    0.0    0.0
  XR-Pump-2               82.97           7      0.00     72.16     95.00     1.681     16.91    0.0    0.0
  XR-Pump-3               85.09           8      0.00     69.99     95.00     1.710     16.73    0.0    0.0
  XR-Pump-4               80.84           7      0.00     68.82     95.00     1.625     18.79    0.0    0.0
  

  Analysis begun on:  Fri Dec 24 15:08:09 2021
  Analysis ended on:  Fri Dec 24 15:08:13 2021
  Total elapsed time: 00:00:04