
  EPA STORM WATER MANAGEMENT MODEL - VERSION 5.1 (Build 5.3.0.dev0)
  --------------------------------------------------------------

  WARNING 04: minimum elevation drop used for Conduit WS02004404WS02004405
  WARNING 03: negative offset ignored for Link YS02001904YS02001907
  
  *********************************************************
  NOTE: The summary statistics displayed in this report are
  based on results found at every computational time step,  
  not just on results from each reporting time step.
  *********************************************************
  
  ****************
  Analysis Options
  ****************
  Flow Units ............... LPS
  Process Models:
    Rainfall/Runoff ........ YES
    RDII ................... NO
    Snowmelt ............... NO
    Groundwater ............ NO
    Flow Routing ........... YES
    Ponding Allowed ........ NO
    Water Quality .......... NO
  Infiltration Method ...... HORTON
  Flow Routing Method ...... DYNWAVE
  Surcharge Method ......... EXTRAN
  Starting Date ............ 08/28/2015 08:00:00
  Ending Date .............. 08/28/2015 15:50:00
  Antecedent Dry Days ...... 8.0
  Report Time Step ......... 00:01:00
  Wet Time Step ............ 00:01:00
  Dry Time Step ............ 00:01:00
  Routing Time Step ........ 5.00 sec
  Variable Time Step ....... YES
  Maximum Trials ........... 8
  Number of Threads ........ 4
  Head Tolerance ........... 0.001500 m
  
  
  **************************        Volume         Depth
  Runoff Quantity Continuity     hectare-m            mm
  **************************     ---------       -------
  Total Precipitation ......         2.005         4.390
  Evaporation Loss .........         0.000         0.000
  Infiltration Loss ........         0.496         1.086
  Surface Runoff ...........         0.697         1.526
  Final Storage ............         0.812         1.779
  Continuity Error (%) .....        -0.017
  
  
  **************************        Volume        Volume
  Flow Routing Continuity        hectare-m      10^6 ltr
  **************************     ---------     ---------
  Dry Weather Inflow .......         0.616         6.165
  Wet Weather Inflow .......         0.697         6.965
  Groundwater Inflow .......         0.000         0.000
  RDII Inflow ..............         0.000         0.000
  External Inflow ..........         0.102         1.024
  External Outflow .........         1.494        14.941
  Flooding Loss ............         0.000         0.000
  Evaporation Loss .........         0.000         0.000
  Exfiltration Loss ........         0.000         0.000
  Initial Stored Volume ....         0.076         0.761
  Final Stored Volume ......         0.165         1.650
  Continuity Error (%) .....       -11.237
  
  
  *************************
  Highest Continuity Errors
  *************************
  Node JK-storage (-60.12%)
  Node HS02004842 (35.57%)
  Node YS02001884 (29.79%)
  Node YS02001774 (14.97%)
  Node YSB1171 (9.96%)
  
  
  ***************************
  Time-Step Critical Elements
  ***************************
  Link WS02006252WS02006251 (67.21%)
  Link 3 (22.70%)
  Link WS02006238WS02006235 (3.21%)
  Link WS02006280WS02006229 (2.42%)
  
  
  ********************************
  Highest Flow Instability Indexes
  ********************************
  Link WS02006113WS02006111 (45)
  Link WS02006111WS02006112 (18)
  Link YS02001754YS02001757 (3)
  Link YS02001751YS02001754 (3)
  Link YS02001762YS02001759 (3)
  
  
  *************************
  Routing Time Step Summary
  *************************
  Minimum Time Step           :     0.15 sec
  Average Time Step           :     0.97 sec
  Maximum Time Step           :     5.00 sec
  Percent in Steady State     :    -0.00
  Average Iterations per Step :     2.03
  Percent Not Converging      :     0.04
  
  
  ***************************
  Subcatchment Runoff Summary
  ***************************
  
  ------------------------------------------------------------------------------------------------------------------------------
                            Total      Total      Total      Total     Imperv       Perv      Total       Total     Peak  Runoff
                           Precip      Runon       Evap      Infil     Runoff     Runoff     Runoff      Runoff   Runoff   Coeff
  Subcatchment                 mm         mm         mm         mm         mm         mm         mm    10^6 ltr      LPS
  ------------------------------------------------------------------------------------------------------------------------------
  sub0                       4.39       0.00       0.00       0.31       2.82       0.00       2.82        0.00     0.94   0.642
  sub1                       4.39       0.00       0.00       0.48       2.65       0.00       2.65        0.02     4.66   0.605
  sub2                       4.39       0.00       0.00       1.62       1.86       0.00       1.86        0.02     4.07   0.424
  sub3                       4.39       0.00       0.00       1.62       1.83       0.00       1.83        0.04     8.25   0.417
  sub4                       4.39       0.00       0.00       0.48       2.53       0.00       2.53        0.05     9.12   0.576
  sub5                       4.39       0.00       0.00       0.31       2.77       0.00       2.77        0.03     8.28   0.632
  sub7                       4.39       0.00       0.00       0.40       2.74       0.00       2.74        0.01     2.98   0.624
  sub8                       4.39       0.00       0.00       0.40       2.73       0.00       2.73        0.02     5.22   0.622
  sub9                       4.39       0.00       0.00       0.40       2.73       0.00       2.73        0.01     3.86   0.622
  sub10                      4.39       0.00       0.00       0.35       2.75       0.00       2.75        0.03     8.30   0.626
  sub11                      4.39       0.00       0.00       0.35       2.77       0.00       2.77        0.03     9.85   0.630
  sub12                      4.39       0.00       0.00       0.57       2.63       0.00       2.63        0.02     8.52   0.599
  sub14                      4.39       0.00       0.00       0.40       2.73       0.00       2.73        0.03     7.54   0.622
  sub15                      4.39       0.00       0.00       1.32       2.10       0.00       2.10        0.04    10.20   0.477
  sub16                      4.39       0.00       0.00       1.45       2.02       0.00       2.02        0.02     7.45   0.461
  sub17                      4.39       0.00       0.00       1.40       2.05       0.00       2.05        0.02     5.99   0.467
  sub22                      4.39       0.00       0.00       1.89       1.71       0.00       1.71        0.11    33.77   0.391
  sub23                      4.39       0.00       0.00       1.62       1.90       0.00       1.90        0.09    28.83   0.432
  sub60                      4.39       0.00       0.00       0.53       1.67       0.00       1.67        0.51    42.88   0.380
  sub61                      4.39       0.00       0.00       0.75       1.83       0.00       1.83        0.56    54.81   0.417
  sub62                      4.39       0.00       0.00       0.35       1.95       0.00       1.95        0.60    55.71   0.444
  sub63                      4.39       0.00       0.00       1.27       1.65       0.00       1.65        0.50    51.54   0.375
  sub64                      4.39       0.00       0.00       0.66       1.59       0.00       1.59        0.48    40.66   0.362
  sub65                      4.39       0.00       0.00       0.57       1.61       0.00       1.61        0.49    41.19   0.366
  sub66                      4.39       0.00       0.00       1.27       1.40       0.00       1.40        0.43    37.51   0.319
  sub67                      4.39       0.00       0.00       0.35       2.19       0.00       2.19        0.68    72.79   0.500
  sub68                      4.39       0.00       0.00       0.61       1.96       0.00       1.96        0.60    60.89   0.447
  sub69                      4.39       0.00       0.00       0.66       2.17       0.00       2.17        0.51    61.77   0.494
  sub70                      4.39       2.21       0.00       2.25       2.52       0.00       2.52        0.58    45.67   0.381
  sub71                      4.39       0.00       0.00       0.35       1.85       0.00       1.85        0.44    38.63   0.420
  sub72                      4.39       0.00       0.00       0.31       1.23       0.00       1.23        0.25    17.56   0.280
  sub73                      4.39       2.45       0.00       2.33       2.46       0.00       2.46        0.58    38.88   0.360
  sub74                      4.39       0.00       0.00       3.29       0.66       0.00       0.66        0.26    34.75   0.150
  
  
  ******************
  Node Depth Summary
  ******************
  
  ---------------------------------------------------------------------------------
                                 Average  Maximum  Maximum  Time of Max    Reported
                                   Depth    Depth      HGL   Occurrence   Max Depth
  Node                 Type       Meters   Meters   Meters  days hr:min      Meters
  ---------------------------------------------------------------------------------
  WS02001211           JUNCTION     0.66     0.76     5.59     0  05:00        0.76
  WS02001212           JUNCTION     0.38     0.46     5.53     0  03:41        0.46
  WS02001213           JUNCTION     0.61     0.70     5.46     0  03:41        0.70
  WS02003069           JUNCTION     0.42     0.52     5.10     0  03:09        0.52
  WS02003072           JUNCTION     0.49     0.58     4.95     0  03:09        0.58
  WS02003073           JUNCTION     0.29     0.35     4.42     0  03:10        0.35
  WS02003060           JUNCTION     0.38     0.46     5.39     0  03:08        0.46
  WS02003066           JUNCTION     0.22     0.28     5.83     0  03:06        0.28
  WS02003059           JUNCTION     0.67     0.75     5.44     0  03:42        0.75
  WS02003067           JUNCTION     0.55     0.67     5.99     0  03:06        0.67
  WS02004401           JUNCTION     0.63     0.79     6.79     0  03:02        0.79
  WS02004402           JUNCTION     0.67     0.82     6.78     0  03:02        0.82
  WS02004403           JUNCTION     0.69     0.84     6.77     0  03:02        0.84
  WS02004404           JUNCTION     0.76     0.91     6.76     0  03:02        0.91
  WS02004406           JUNCTION     0.77     0.91     6.74     0  03:02        0.91
  WS02004409           JUNCTION     0.45     0.61     6.38     0  03:05        0.61
  WS02004410           JUNCTION     0.47     0.63     6.35     0  03:05        0.63
  WS02004411           JUNCTION     0.49     0.64     6.32     0  03:06        0.64
  WS02004412           JUNCTION     0.51     0.65     6.29     0  03:06        0.65
  WS02004413           JUNCTION     0.67     0.81     6.28     0  03:06        0.81
  WS02004405           JUNCTION     0.76     0.91     6.76     0  03:02        0.91
  WS02006109           JUNCTION     0.71     0.89     7.51     0  02:56        0.89
  WS02006110           JUNCTION     0.71     0.86     7.45     0  02:56        0.86
  WS02006111           JUNCTION     0.20     0.27     6.97     0  02:57        0.27
  WS02006112           JUNCTION     0.80     0.98     6.86     0  03:02        0.98
  WS02006113           JUNCTION     0.32     0.42     7.31     0  02:56        0.42
  WS02006115           JUNCTION     0.52     0.69     6.83     0  03:02        0.69
  WS02006116           JUNCTION     0.61     0.77     6.81     0  03:02        0.77
  WS02006230           JUNCTION     0.67     0.92     7.66     0  02:57        0.92
  WS02006231           JUNCTION     0.45     0.62     7.74     0  02:57        0.62
  WS02006232           JUNCTION     0.58     0.76     7.80     0  02:57        0.76
  WS02006234           JUNCTION     0.50     0.71     7.87     0  02:57        0.71
  WS02006235           JUNCTION     0.53     0.75     7.92     0  02:57        0.75
  WS02006238           JUNCTION     0.56     0.78     7.93     0  02:57        0.78
  WS02006240           JUNCTION     0.45     0.71     8.01     0  02:57        0.71
  WS02006242           JUNCTION     0.51     0.78     8.05     0  02:57        0.78
  WS02006243           JUNCTION     0.39     0.68     8.10     0  02:57        0.68
  WS02006245           JUNCTION     0.37     0.65     8.13     0  02:57        0.65
  WS02006247           JUNCTION     0.39     0.66     8.16     0  02:57        0.66
  WS02006248           JUNCTION     0.34     0.59     8.18     0  02:57        0.59
  WS02006249           JUNCTION     0.38     0.61     8.21     0  02:58        0.61
  WS02006239           JUNCTION     0.51     0.76     7.97     0  02:57        0.76
  WS02006251           JUNCTION     0.37     0.63     8.30     0  02:58        0.63
  WS02006252           JUNCTION     0.33     0.58     8.83     0  02:50        0.58
  WS02006253           JUNCTION     0.39     0.66     8.30     0  02:58        0.66
  WS02006256           JUNCTION     0.98     1.15     8.08     0  02:56        1.15
  WS02004138           JUNCTION     0.15     0.19     7.44     0  00:40        0.19
  WS02004407           JUNCTION     0.21     0.27     6.59     0  03:03        0.27
  WS02006228           JUNCTION     0.71     0.91     7.56     0  02:56        0.91
  WS02006229           JUNCTION     0.68     0.90     7.59     0  02:56        0.90
  WS02006280           JUNCTION     0.05     0.12     8.39     0  02:22        0.12
  WS02006284           JUNCTION     0.34     0.44     8.84     0  02:22        0.44
  WS02006287           JUNCTION     0.07     0.17     9.12     0  02:22        0.17
  WSF200               JUNCTION     0.20     0.28     5.51     0  03:06        0.28
  HS02004901           JUNCTION     0.10     0.19    10.02     0  02:20        0.19
  HS02004881           JUNCTION     0.00     0.02     9.05     0  02:21        0.02
  HS02004876           JUNCTION     0.03     0.09     9.12     0  02:21        0.09
  HS02004870           JUNCTION     0.01     0.03     9.32     0  02:21        0.03
  HS02004862           JUNCTION     0.01     0.03     9.42     0  02:22        0.03
  HS02004856           JUNCTION     0.07     0.09     9.52     0  02:21        0.09
  HS02004852           JUNCTION     0.01     0.02     9.53     0  02:22        0.02
  HS02004848           JUNCTION     0.00     0.02     9.62     0  02:19        0.02
  HS02004842           JUNCTION     0.33     0.35     9.62     0  02:19        0.35
  HS02004837           JUNCTION     0.02     0.04     9.62     0  02:19        0.04
  HS02004830           JUNCTION     0.03     0.05     9.52     0  02:20        0.05
  HS02004824           JUNCTION     0.02     0.03     9.43     0  02:23        0.03
  HS02004817           JUNCTION     0.42     0.49     9.34     0  02:22        0.49
  HS02004807           JUNCTION     0.11     0.17     9.34     0  02:22        0.17
  HS02004802           JUNCTION     0.14     0.21     9.34     0  02:22        0.21
  HS02004799           JUNCTION     0.09     0.21     9.42     0  02:20        0.21
  HS02004792           JUNCTION     0.02     0.07     9.60     0  02:19        0.07
  HS02004788           JUNCTION     0.02     0.05     9.95     0  02:21        0.05
  HS02004785           JUNCTION     0.03     0.11    10.01     0  02:21        0.11
  HS02004777           JUNCTION     0.13     0.22    10.02     0  02:20        0.22
  HS02004770           JUNCTION     0.10     0.19    10.02     0  02:20        0.19
  HS02004480           JUNCTION     0.06     0.16     9.40     0  02:21        0.16
  HS02004479           JUNCTION     0.09     0.19     9.40     0  02:21        0.19
  HS02004478           JUNCTION     0.05     0.10     9.33     0  02:22        0.10
  YS02001745           JUNCTION     0.06     0.09     7.61     0  03:01        0.09
  YS02001748           JUNCTION     0.08     0.15     7.22     0  03:07        0.14
  YS02001751           JUNCTION     0.21     0.36     7.24     0  03:08        0.35
  YS02001754           JUNCTION     0.46     0.65     7.26     0  03:27        0.65
  YS02001762           JUNCTION     0.66     0.83     7.23     0  03:06        0.83
  YS02001765           JUNCTION     0.61     0.78     7.23     0  03:05        0.78
  YS02001767           JUNCTION     0.58     0.74     7.23     0  03:05        0.74
  YS02001770           JUNCTION     0.57     0.73     7.22     0  03:05        0.73
  YS02001774           JUNCTION     0.64     0.80     7.23     0  03:05        0.80
  YS02001779           JUNCTION     0.39     0.54     7.23     0  03:04        0.54
  YS02001882           JUNCTION     0.23     0.34     7.06     0  02:56        0.34
  YS02001884           JUNCTION     0.33     0.44     7.06     0  02:55        0.44
  YS02001759           JUNCTION     0.69     0.86     7.23     0  03:02        0.86
  YS02001887           JUNCTION     0.41     0.52     7.06     0  02:55        0.52
  YS02001890           JUNCTION     0.44     0.55     7.06     0  02:56        0.55
  YS02001898           JUNCTION     0.21     0.31     7.04     0  02:58        0.31
  YS02001901           JUNCTION     0.32     0.43     7.04     0  02:57        0.43
  YS02001904           JUNCTION     0.30     0.41     7.04     0  02:57        0.41
  YS02001907           JUNCTION     0.63     0.75     7.04     0  02:58        0.75
  YS02001910           JUNCTION     0.42     0.54     7.04     0  02:56        0.54
  YS02001915           JUNCTION     0.22     0.32     7.04     0  02:57        0.32
  YS02001918           JUNCTION     0.06     0.07     7.14     0  03:04        0.07
  YS02001619           JUNCTION     0.18     0.30     7.23     0  03:02        0.30
  YS02001629           JUNCTION     0.52     0.68     7.23     0  03:04        0.68
  YS02001641           JUNCTION     0.63     0.79     7.23     0  03:03        0.79
  YS02001644           JUNCTION     0.63     0.79     7.23     0  03:05        0.79
  YS02001652           JUNCTION     0.48     0.64     7.23     0  03:05        0.63
  YS02001655           JUNCTION     0.24     0.38     7.23     0  03:04        0.38
  YS02001920           JUNCTION     0.15     0.17     7.18     0  03:03        0.17
  YS02001923           JUNCTION     0.05     0.06     7.32     0  03:02        0.06
  YS02001926           JUNCTION     0.12     0.14     7.58     0  03:02        0.14
  YS02001929           JUNCTION     0.05     0.06     7.76     0  03:01        0.06
  YS02001658           JUNCTION     0.06     0.10     7.24     0  02:48        0.10
  YS02001661           JUNCTION     0.13     0.17     7.57     0  02:47        0.17
  YS02001664           JUNCTION     0.06     0.09     8.01     0  02:47        0.09
  YS02001622           JUNCTION     0.20     0.32     7.23     0  03:01        0.32
  YS02001633           JUNCTION     0.61     0.77     7.23     0  03:03        0.77
  YS02001649           JUNCTION     0.67     0.84     7.23     0  03:02        0.83
  YS02001757           JUNCTION     0.79     0.97     7.23     0  03:03        0.97
  YS02001895           JUNCTION     0.20     0.31     7.05     0  02:56        0.31
  YS02001625           JUNCTION     0.48     0.62     7.23     0  03:04        0.62
  YS02163301           JUNCTION     0.55     0.71     7.23     0  03:04        0.71
  YS02163601           JUNCTION     0.66     0.83     7.23     0  03:03        0.83
  YS02164001           JUNCTION     0.61     0.77     7.23     0  03:03        0.77
  YS02001647           JUNCTION     0.46     0.62     7.23     0  03:07        0.61
  YSB1154              JUNCTION     0.23     0.34     9.40     0  02:21        0.34
  YSB6556              JUNCTION     0.12     0.23     9.40     0  02:20        0.23
  YSB1174              JUNCTION     0.18     0.29     9.40     0  02:21        0.29
  YSB1171              JUNCTION     0.38     0.50     9.40     0  02:20        0.50
  YS02006553           JUNCTION     0.64     0.76     7.04     0  02:58        0.76
  YS02006561           JUNCTION     0.11     0.17     6.83     0  02:57        0.17
  YS02006556           JUNCTION     0.61     0.73     7.04     0  02:57        0.73
  YS02006558           JUNCTION     0.65     0.77     7.04     0  02:57        0.77
  YS02001783           JUNCTION     0.19     0.30     6.44     0  02:57        0.30
  YS02001784           JUNCTION     0.23     0.33     6.40     0  02:58        0.33
  YS02001786           JUNCTION     0.19     0.28     6.31     0  02:58        0.28
  YS02001788           JUNCTION     0.14     0.20     6.18     0  02:58        0.20
  YS02001790           JUNCTION     0.17     0.25     5.89     0  02:59        0.25
  YS02001791           JUNCTION     0.11     0.16     5.63     0  02:59        0.16
  YS02001793           JUNCTION     0.07     0.11     4.94     0  02:59        0.11
  WS02004139           JUNCTION     0.60     0.70     5.61     0  05:00        0.70
  WSC                  OUTFALL      0.29     0.35     1.02     0  03:10        0.35
  3                    OUTFALL      0.06     0.15     6.15     0  02:56        0.15
  4                    OUTFALL      0.01     0.11     7.11     0  02:58        0.11
  5                    OUTFALL      0.00     0.00     5.00     0  00:00        0.00
  JK-storage           STORAGE      0.06     3.00     3.80     0  00:10        3.00
  CC-storage           STORAGE      0.02     0.08     7.08     0  06:04        0.08
  XR-storage           STORAGE      2.38     5.00     3.00     0  00:00        4.96
  
  
  *******************
  Node Inflow Summary
  *******************
  
  -------------------------------------------------------------------------------------------------
                                  Maximum  Maximum                  Lateral       Total        Flow
                                  Lateral    Total  Time of Max      Inflow      Inflow     Balance
                                   Inflow   Inflow   Occurrence      Volume      Volume       Error
  Node                 Type           LPS      LPS  days hr:min    10^6 ltr    10^6 ltr     Percent
  -------------------------------------------------------------------------------------------------
  WS02001211           JUNCTION      7.35   380.93     0  05:00       0.207        6.96       0.507
  WS02001212           JUNCTION      0.00   376.10     0  05:00           0        6.92       0.308
  WS02001213           JUNCTION      0.00   374.00     0  05:01           0         6.9       0.319
  WS02003069           JUNCTION      0.32   767.33     0  03:08     0.00902        13.2       0.209
  WS02003072           JUNCTION      0.00   767.30     0  03:09           0        13.2       0.261
  WS02003073           JUNCTION      1.82   769.12     0  03:09      0.0514        13.2       0.290
  WS02003060           JUNCTION     16.53   767.00     0  03:08       0.466        13.2       0.201
  WS02003066           JUNCTION      0.00   459.86     0  03:06           0        5.94       0.065
  WS02003059           JUNCTION      0.00   371.34     0  05:01           0        6.88       0.524
  WS02003067           JUNCTION      0.00   459.85     0  03:06           0        5.95       0.142
  WS02004401           JUNCTION      0.00   461.77     0  03:00           0        6.16       0.323
  WS02004402           JUNCTION      0.00   461.46     0  03:01           0        6.14       0.306
  WS02004403           JUNCTION      0.00   461.33     0  03:02           0        6.13       0.281
  WS02004404           JUNCTION      0.16   461.42     0  03:02     0.00457        6.11       0.215
  WS02004406           JUNCTION      0.00   461.42     0  03:02           0        6.08       0.525
  WS02004409           JUNCTION      0.00   461.39     0  03:03           0        6.04       0.232
  WS02004410           JUNCTION      0.00   460.74     0  03:04           0        6.03       0.265
  WS02004411           JUNCTION      0.00   460.32     0  03:04           0        6.01       0.275
  WS02004412           JUNCTION      0.00   460.06     0  03:05           0           6       0.302
  WS02004413           JUNCTION      0.00   459.90     0  03:05           0        5.98       0.457
  WS02004405           JUNCTION      0.04   461.44     0  03:02     0.00107         6.1       0.321
  WS02006109           JUNCTION      1.23   463.68     0  02:56      0.0347        6.26       0.286
  WS02006110           JUNCTION      0.00   463.67     0  02:56           0        6.24       0.316
  WS02006111           JUNCTION      0.00   477.57     0  02:57           0        6.21       0.061
  WS02006112           JUNCTION      5.99   467.26     0  02:57      0.0176        6.23       0.451
  WS02006113           JUNCTION      0.00   463.74     0  02:56           0        6.22       0.143
  WS02006115           JUNCTION      0.00   463.98     0  02:58           0         6.2       0.304
  WS02006116           JUNCTION      0.00   462.43     0  02:59           0        6.18       0.265
  WS02006230           JUNCTION     10.28   392.98     0  03:42        0.29        5.59       0.194
  WS02006231           JUNCTION      0.00   383.76     0  03:42           0        5.31       0.212
  WS02006232           JUNCTION      0.00   383.92     0  03:42           0        5.33       0.277
  WS02006234           JUNCTION      0.00   385.13     0  03:41           0        5.33       0.135
  WS02006235           JUNCTION      0.00   385.20     0  03:41           0        5.39       0.177
  WS02006238           JUNCTION      0.00   308.61     0  06:21           0        3.56       0.193
  WS02006240           JUNCTION      0.00   319.09     0  06:21           0        3.53       0.277
  WS02006242           JUNCTION      0.00   323.69     0  06:21           0        3.52       0.345
  WS02006243           JUNCTION      0.00   337.15     0  02:51           0        3.51      -0.100
  WS02006245           JUNCTION      0.00   341.19     0  02:50           0        3.52       0.278
  WS02006247           JUNCTION      0.00   348.91     0  02:50           0        3.52       0.169
  WS02006248           JUNCTION      0.00   355.04     0  02:50           0        3.52       0.072
  WS02006249           JUNCTION      0.00   413.24     0  02:56           0        3.71       0.253
  WS02006239           JUNCTION      0.00   313.46     0  06:20           0        3.54       0.279
  WS02006251           JUNCTION      0.08   415.31     0  02:51     0.00217        3.75       0.179
  WS02006252           JUNCTION      0.00   400.00     0  02:50           0        3.62       0.011
  WS02006253           JUNCTION      0.94    44.88     0  05:15     0.00228       0.135       1.901
  WS02006256           JUNCTION      0.00   386.55     0  02:59           0        3.47       0.075
  WS02004138           JUNCTION      0.00   379.97     0  01:50           0        6.78       0.079
  WS02004407           JUNCTION      0.00   461.40     0  03:02           0        6.05       0.108
  WS02006228           JUNCTION      0.00   462.45     0  02:56           0        6.24       0.215
  WS02006229           JUNCTION      0.00   462.47     0  02:56           0        6.25       0.190
  WS02006280           JUNCTION      0.00   135.20     0  02:22           0       0.671       0.011
  WS02006284           JUNCTION      0.10   135.19     0  02:22      0.0027       0.672       0.167
  WS02006287           JUNCTION      0.00   135.11     0  02:22           0        0.67       0.104
  WSF200               JUNCTION      0.00   459.86     0  03:06           0        5.94       0.059
  HS02004901           JUNCTION      7.45     7.45     0  02:12      0.0212      0.0213       8.979
  HS02004881           JUNCTION      2.98    24.53     0  02:21     0.00923      0.0958       0.234
  HS02004876           JUNCTION      4.66    21.83     0  02:20      0.0176      0.0871       0.599
  HS02004870           JUNCTION      5.22    17.30     0  02:20      0.0174      0.0696       0.152
  HS02004862           JUNCTION      4.27    12.48     0  02:21       0.023      0.0523       0.319
  HS02004856           JUNCTION      3.86     8.26     0  02:20      0.0131      0.0307       4.918
  HS02004852           JUNCTION      0.00     4.68     0  02:21           0      0.0177       0.272
  HS02004848           JUNCTION      8.25     8.25     0  02:23      0.0412      0.0412       0.102
  HS02004842           JUNCTION      0.00     4.48     0  00:03           0      0.0366      55.199
  HS02004837           JUNCTION     14.65    18.04     0  02:19       0.209       0.233       0.350
  HS02004830           JUNCTION      0.15    18.19     0  02:19     0.00423       0.223       0.554
  HS02004824           JUNCTION      9.17    27.24     0  02:23      0.0541       0.276       0.195
  HS02004817           JUNCTION      0.60    27.84     0  02:23      0.0169       0.293       6.039
  HS02004807           JUNCTION      9.85    36.73     0  02:22      0.0321       0.308       1.390
  HS02004802           JUNCTION      0.00    36.80     0  02:23           0       0.304       1.351
  HS02004799           JUNCTION      7.54    83.80     0  02:19       0.026       0.331       0.682
  HS02004792           JUNCTION     34.05    76.53     0  02:19       0.116       0.305       0.136
  HS02004788           JUNCTION     11.87    44.61     0  02:20      0.0831        0.19       0.204
  HS02004785           JUNCTION      0.15    33.27     0  02:19     0.00423       0.109       0.440
  HS02004777           JUNCTION      0.03    33.70     0  02:18    0.000846       0.109       4.971
  HS02004770           JUNCTION     28.83    34.99     0  02:16      0.0904        0.11       2.898
  HS02004480           JUNCTION      0.00    98.64     0  02:20           0       0.382       0.182
  HS02004479           JUNCTION      0.00    15.21     0  02:22           0       0.064       1.149
  HS02004478           JUNCTION      0.00   135.11     0  02:21           0       0.671       0.097
  YS02001745           JUNCTION     42.89    42.89     0  03:01       0.505       0.505       0.073
  YS02001748           JUNCTION      0.04    42.93     0  03:01     0.00127       0.506       0.041
  YS02001751           JUNCTION      0.01   103.62     0  03:34     0.00031       0.657       0.268
  YS02001754           JUNCTION      0.26   221.48     0  03:34     0.00733        1.14       0.832
  YS02001762           JUNCTION      0.00    69.98     0  03:27           0        0.65       2.085
  YS02001765           JUNCTION      0.00    94.98     0  03:31           0       0.639       2.213
  YS02001767           JUNCTION      0.54    67.11     0  02:52      0.0151       0.646       3.144
  YS02001770           JUNCTION     55.86    62.68     0  02:32       0.603       0.628       2.638
  YS02001774           JUNCTION      0.00    27.31     0  02:28           0       0.097      17.603
  YS02001779           JUNCTION      0.01    14.02     0  02:28    0.000141      0.0581       9.899
  YS02001882           JUNCTION      0.00     2.69     0  02:12           0     0.00365      67.150
  YS02001884           JUNCTION      0.00     8.11     0  02:08           0      0.0148      42.428
  YS02001759           JUNCTION     54.85   140.81     0  03:32       0.565        1.19       1.355
  YS02001887           JUNCTION     73.24    73.24     0  02:45       0.689       0.696       0.967
  YS02001890           JUNCTION      0.00    72.84     0  02:48           0       0.677       1.096
  YS02001898           JUNCTION      0.00    72.53     0  02:51           0       0.666       0.278
  YS02001901           JUNCTION      0.00    72.53     0  02:51           0       0.666       0.762
  YS02001904           JUNCTION      0.00    72.25     0  02:53           0       0.666       0.711
  YS02001907           JUNCTION      0.00   130.78     0  02:59           0        1.42       1.525
  YS02001910           JUNCTION      0.00    59.24     0  03:01           0       0.761       1.271
  YS02001915           JUNCTION     38.65    58.95     0  03:01       0.436       0.765       0.524
  YS02001918           JUNCTION      0.00    20.45     0  03:03           0        0.33       0.262
  YS02001619           JUNCTION     37.51    37.51     0  03:01       0.429       0.429       0.131
  YS02001629           JUNCTION      0.00    40.40     0  03:11           0       0.412       1.315
  YS02001641           JUNCTION      0.00    90.37     0  03:10           0       0.876       1.474
  YS02001644           JUNCTION     40.70   121.89     0  03:01       0.484        1.34       1.162
  YS02001652           JUNCTION      0.00    68.75     0  03:37           0       0.564       1.519
  YS02001655           JUNCTION      0.15    51.70     0  02:48     0.00434       0.511       0.669
  YS02001920           JUNCTION      2.87    20.46     0  03:02      0.0809       0.332       0.530
  YS02001923           JUNCTION      0.04    17.59     0  03:02     0.00106       0.251       0.093
  YS02001926           JUNCTION      0.05    17.60     0  03:01     0.00147       0.252       0.674
  YS02001929           JUNCTION     17.56    17.56     0  03:01       0.251       0.251       0.088
  YS02001658           JUNCTION      0.00    51.54     0  02:47           0       0.498       0.040
  YS02001661           JUNCTION      0.00    51.54     0  02:47           0       0.498       0.149
  YS02001664           JUNCTION     51.54    51.54     0  02:47       0.498       0.498       0.030
  YS02001622           JUNCTION      0.00    40.23     0  02:57           0       0.428       0.595
  YS02001633           JUNCTION     41.39    81.14     0  03:08       0.499       0.899       2.074
  YS02001649           JUNCTION      0.00   205.61     0  03:25           0        1.85       1.280
  YS02001757           JUNCTION      0.00   462.18     0  03:32           0        3.83       1.858
  YS02001895           JUNCTION      0.00    72.63     0  02:48           0       0.669       0.486
  YS02001625           JUNCTION      0.00    40.07     0  02:57           0       0.426       3.590
  YS02163301           JUNCTION      0.00    44.21     0  03:16           0       0.413       3.030
  YS02163601           JUNCTION      0.11    85.91     0  03:10      0.0031        0.88       2.185
  YS02164001           JUNCTION      0.00    87.67     0  03:20           0        0.87       1.346
  YS02001647           JUNCTION      0.00   128.55     0  03:04           0        1.31       0.891
  YSB1154              JUNCTION      8.28     8.28     0  02:17      0.0314      0.0328       4.601
  YSB6556              JUNCTION      0.00     8.14     0  02:20           0      0.0339       3.813
  YSB1174              JUNCTION      8.52     8.52     0  02:12       0.023       0.024       5.657
  YSB1171              JUNCTION      0.00    15.19     0  02:19           0      0.0634      11.066
  YS02006553           JUNCTION      0.00   130.95     0  03:02           0        1.41       0.993
  YS02006561           JUNCTION      0.00   191.97     0  02:57           0        1.98       0.027
  YS02006556           JUNCTION      0.00   131.13     0  03:03           0        1.41       0.712
  YS02006558           JUNCTION     61.77   191.98     0  02:57       0.628        2.01       0.215
  YS02001783           JUNCTION      0.00   191.96     0  02:57           0        1.98       0.063
  YS02001784           JUNCTION      1.06   193.02     0  02:57      0.0299        2.01       0.106
  YS02001786           JUNCTION      0.06   193.07     0  02:58     0.00159        2.01       0.103
  YS02001788           JUNCTION      0.07   193.13     0  02:58       0.002        2.01       0.058
  YS02001790           JUNCTION      0.15   193.28     0  02:58     0.00437        2.02       0.075
  YS02001791           JUNCTION      0.00   193.28     0  02:59           0        2.01       0.036
  YS02001793           JUNCTION      0.00   193.28     0  02:59           0        2.01       0.016
  WS02004139           JUNCTION      0.32   379.64     0  00:40     0.00905        6.79       0.569
  WSC                  OUTFALL       0.00   769.11     0  03:10           0        13.2       0.000
  3                    OUTFALL       0.00   305.92     0  02:56           0        1.59       0.000
  4                    OUTFALL       0.00   116.67     0  02:58           0       0.174       0.000
  5                    OUTFALL       0.00     0.00     0  00:00           0           0       0.000 ltr
  JK-storage           STORAGE       0.00   193.28     0  02:59           0        2.16     -37.545
  CC-storage           STORAGE       0.00   324.69     0  03:03           0        3.28      -9.454
  XR-storage           STORAGE     270.14   270.14     0  02:54        6.48        7.08      -0.000
  
  
  **********************
  Node Surcharge Summary
  **********************
  
  Surcharging occurs when water rises above the top of the highest conduit.
  ---------------------------------------------------------------------
                                               Max. Height   Min. Depth
                                   Hours       Above Crown    Below Rim
  Node                 Type      Surcharged         Meters       Meters
  ---------------------------------------------------------------------
  WS02006109           JUNCTION        0.86          0.068        1.752
  WS02006232           JUNCTION        1.15          0.063        1.417
  WS02006235           JUNCTION        0.37          0.044        1.246
  WS02006238           JUNCTION        0.72          0.062        1.368
  WS02006240           JUNCTION        0.09          0.002        1.388
  WS02006242           JUNCTION        0.36          0.053        0.767
  WS02006239           JUNCTION        0.19          0.018        1.272
  WS02006252           JUNCTION        1.47          0.185        0.915
  WS02006228           JUNCTION        0.75          0.078        2.122
  
  
  *********************
  Node Flooding Summary
  *********************
  
  No nodes were flooded.
  
  
  **********************
  Storage Volume Summary
  **********************
  
  --------------------------------------------------------------------------------------------------
                         Average     Avg  Evap Exfil       Maximum     Max    Time of Max    Maximum
                          Volume    Pcnt  Pcnt  Pcnt        Volume    Pcnt     Occurrence    Outflow
  Storage Unit           1000 m3    Full  Loss  Loss       1000 m3    Full    days hr:min        LPS
  --------------------------------------------------------------------------------------------------
  JK-storage               0.003       1     0     0         0.151      52       0  00:10     386.55
  CC-storage               0.056       0     0     0         0.223       1       0  06:04     400.00
  XR-storage               0.286      31     0     0         0.600      65       0  00:00     379.97
  
  
  ***********************
  Outfall Loading Summary
  ***********************
  
  -----------------------------------------------------------
                         Flow       Avg       Max       Total
                         Freq      Flow      Flow      Volume
  Outfall Node           Pcnt       LPS       LPS    10^6 ltr
  -----------------------------------------------------------
  WSC                  100.00    539.81    769.11      13.177
  3                     71.50    120.26    305.92       1.590
  4                     25.68     37.75    116.67       0.174
  5                      0.00      0.00      0.00       0.000
  -----------------------------------------------------------
  System                49.29    697.83   1133.57      14.941
  
  
  ********************
  Link Flow Summary
  ********************
  
  -----------------------------------------------------------------------------
                                 Maximum  Time of Max   Maximum    Max/    Max/
                                  |Flow|   Occurrence   |Veloc|    Full    Full
  Link                 Type          LPS  days hr:min     m/sec    Flow   Depth
  -----------------------------------------------------------------------------
  WS02003066WSF200     CONDUIT    459.86     0  03:06      2.65    0.08    0.21
  WS02006287WS02006284 CONDUIT    135.10     0  02:22      1.40    0.06    0.18
  WS02006284WS02006280 CONDUIT    135.20     0  02:22      1.65    0.06    0.16
  WS02006280WS02006229 CONDUIT    135.20     0  02:22      2.64    0.03    0.12
  WS02006229WS02006228 CONDUIT    462.45     0  02:56      0.92    1.53    1.00
  WS02006256WS02006235 CONDUIT    153.49     0  06:02      2.20    1.62    1.00
  WS02006253WS02006251 CONDUIT     48.48     0  06:32      0.41    0.15    0.91
  WS02006252WS02006251 CONDUIT    400.20     0  02:50      3.18    1.47    1.00
  WS02006251WS02006249 CONDUIT    413.24     0  02:56      1.19    1.19    0.89
  WS02006249WS02006248 CONDUIT    355.04     0  02:50      1.15    1.94    0.84
  WS02006248WS02006247 CONDUIT    348.91     0  02:50      1.12    0.76    0.89
  WS02006247WS02006245 CONDUIT    341.19     0  02:50      1.09    2.71    0.92
  WS02006245WS02006243 CONDUIT    337.15     0  02:51      1.14    1.00    0.94
  WS02006243WS02006242 CONDUIT    323.69     0  06:21      0.97    0.69    0.98
  WS02006242WS02006240 CONDUIT    319.09     0  06:21      0.85    1.27    1.00
  WS02006240WS02006239 CONDUIT    313.46     0  06:20      0.86    0.99    1.00
  WS02006239WS02006238 CONDUIT    308.61     0  06:21      0.81    0.99    1.00
  WS02006238WS02006235 CONDUIT    307.89     0  06:22      0.80    0.69    1.00
  WS02006235WS02006234 CONDUIT    385.13     0  03:41      1.02    4.06    1.00
  WS02006234WS02006232 CONDUIT    383.92     0  03:42      1.00    0.78    1.00
  WS02006232WS02006231 CONDUIT    383.76     0  03:42      1.05    0.80    0.94
  WS02006231WS02006230 CONDUIT    382.70     0  03:42      1.33    5.81    0.83
  WS02006230WS02006229 CONDUIT    392.65     0  03:43      1.02    8.74    1.00
  WS02006228WS02006109 CONDUIT    462.45     0  02:56      0.92    2.02    1.00
  WS02006116WS02004401 CONDUIT    461.77     0  03:00      0.79    0.64    0.78
  WS02006115WS02006116 CONDUIT    462.43     0  02:59      0.92    0.59    0.70
  WS02006113WS02006111 CONDUIT    477.57     0  02:57      2.33    0.57    0.43
  WS02006112WS02006115 CONDUIT    463.98     0  02:58      0.68    0.27    0.83
  WS02006111WS02006112 CONDUIT    465.35     0  02:57      1.32    0.22    0.66
  WS02006110WS02006113 CONDUIT    463.74     0  02:56      1.13    0.42    0.76
  WS02006109WS02006110 CONDUIT    463.67     0  02:56      0.93    0.89    0.97
  WS02004411WS02004412 CONDUIT    460.06     0  03:05      0.86    0.65    0.65
  WS02004401WS02004402 CONDUIT    461.46     0  03:01      0.83    0.55    0.81
  WS02004413WS02003067 CONDUIT    459.85     0  03:06      1.02    0.20    0.56
  WS02004412WS02004413 CONDUIT    459.90     0  03:05      0.75    0.31    0.73
  WS02004410WS02004411 CONDUIT    460.32     0  03:04      0.88    0.63    0.63
  WS02004409WS02004410 CONDUIT    460.74     0  03:04      0.91    0.60    0.62
  WS02004407WS02004409 CONDUIT    461.39     0  03:03      1.39    0.16    0.44
  WS02004406WS02004407 CONDUIT    461.40     0  03:02      0.95    0.21    0.59
  WS02004405WS02004406 CONDUIT    461.42     0  03:02      0.77    0.91    0.91
  WS02004404WS02004405 CONDUIT    461.40     0  03:02      0.97    4.52    0.91
  WS02004403WS02004404 CONDUIT    461.25     0  03:02      0.85    0.33    0.88
  WS02004402WS02004403 CONDUIT    461.33     0  03:02      0.85    0.66    0.83
  WS02004139WS02001211 CONDUIT    373.58     0  05:00      0.81    0.47    0.57
  WS02004138WS02004139 CONDUIT    379.32     0  00:40      3.34    0.08    0.42
  WS02003067WS02003066 CONDUIT    459.86     0  03:06      1.11    0.15    0.40
  WS02001213WS02003059 CONDUIT    371.34     0  05:01      0.78    0.61    0.72
  WS02001212WS02001213 CONDUIT    374.00     0  05:01      1.30    0.58    0.42
  WS02001211WS02001212 CONDUIT    376.10     0  05:00      0.76    0.29    0.61
  WS02003072WS02003073 CONDUIT    767.30     0  03:09      1.61    1.66    0.44
  WS02003069WS02003072 CONDUIT    767.30     0  03:09      1.52    0.37    0.46
  WS02003060WS02003069 CONDUIT    767.01     0  03:08      1.78    0.30    0.41
  WS02003059WS02003060 CONDUIT    367.76     0  05:02      0.92    0.24    0.60
  HS02004901HS02004770 CONDUIT      6.58     0  02:17      0.03    0.02    0.27
  HS02004876HS02004881 CONDUIT     21.85     0  02:21      0.41    0.23    0.08
  HS02004870HS02004876 CONDUIT     17.28     0  02:21      0.29    0.01    0.08
  HS02004842HS02004848 CONDUIT      3.82     0  02:32      0.02    0.00    0.26
  HS02004837HS02004842 CONDUIT      4.48     0  00:03      0.42    0.00    0.28
  HS02004830HS02004837 CONDUIT     18.04     0  02:19      0.39    0.02    0.07
  HS02004824HS02004830 CONDUIT     18.18     0  02:20      0.44    0.02    0.06
  HS02004817HS02004824 CONDUIT     27.24     0  02:23      0.17    0.01    0.37
  HS02004770HS02004777 CONDUIT     33.67     0  02:18      0.17    0.06    0.29
  HS02004799HS02004480 CONDUIT     83.63     0  02:20      0.47    0.11    0.25
  HS02004792HS02004799 CONDUIT     76.48     0  02:19      0.55    0.05    0.20
  HS02004788HS02004792 CONDUIT     44.56     0  02:21      0.71    0.03    0.09
  HS02004785HS02004788 CONDUIT     33.13     0  02:21      0.42    0.25    0.11
  HS02004777HS02004785 CONDUIT     33.12     0  02:19      0.21    0.04    0.23
  HS02004480HS02004478 CONDUIT     98.64     0  02:21      0.80    0.42    0.18
  HS02004479HS02004480 CONDUIT     15.35     0  02:23      0.15    0.01    0.25
  HS02004862HS02004870 CONDUIT     12.44     0  02:22      0.39    0.01    0.05
  HS02004848HS02004852 CONDUIT      4.68     0  02:21      0.25    0.01    0.03
  HS02004856HS02004862 CONDUIT      8.24     0  02:21      0.28    0.01    0.04
  HS02004852HS02004856 CONDUIT      4.64     0  02:22      0.08    0.01    0.08
  HS02004802HS02004478 CONDUIT     36.97     0  02:25      0.24    0.03    0.22
  HS02004478WS02006287 CONDUIT    135.11     0  02:22      1.09    0.04    0.14
  HS02004817HS02004807 CONDUIT     28.09     0  02:26      0.09    0.02    0.47
  HS02004807HS02004802 CONDUIT     36.80     0  02:23      0.20    0.07    0.26
  YS02001759YS02001757 CONDUIT    125.65     0  02:57      0.17    0.09    0.92
  YS02001762YS02001759 CONDUIT     99.14     0  03:32      0.17    0.11    0.84
  YS02001765YS02001762 CONDUIT     69.98     0  03:27      0.22    0.07    0.81
  YS02001770YS02001767 CONDUIT     66.57     0  02:52      0.32    0.26    0.73
  YS02001774YS02001770 CONDUIT     27.31     0  02:28      0.14    0.02    0.75
  YS02001779YS02001774 CONDUIT     15.06     0  03:24      0.08    0.01    0.67
  YS02001649YS02001757 CONDUIT    193.36     0  03:17      0.26    0.12    0.90
  YS02001767YS02001765 CONDUIT     94.98     0  03:31      0.26    0.12    0.75
  YS02006561YS02001783 CONDUIT    191.96     0  02:57      1.57    0.10    0.29
  YS02001783YS02001784 CONDUIT    191.96     0  02:57      1.05    0.26    0.39
  YS02001784YS02001785 CONDUIT    193.01     0  02:58      1.10    0.45    0.38
  YS02001788YS02001790 CONDUIT    193.13     0  02:58      1.65    0.14    0.28
  YS02001790YS02001791 CONDUIT    193.28     0  02:59      1.89    0.21    0.26
  YS02001791YS02001793 CONDUIT    193.28     0  02:59      3.40    0.08    0.17
  YS02001910YS02001907 CONDUIT     59.25     0  03:01      0.49    0.03    0.64
  YS02001786YS02001788 CONDUIT    193.06     0  02:58      1.50    0.37    0.30
  YS02001915YS02001910 CONDUIT     59.24     0  03:01      0.44    0.03    0.43
  YS02001918YS02001915 CONDUIT     20.44     0  03:04      0.44    0.01    0.20
  YS02001923YS02001920 CONDUIT     17.59     0  03:02      0.34    0.01    0.12
  YS02001926YS02001923 CONDUIT     17.55     0  03:02      0.40    0.03    0.11
  YS02001929YS02001926 CONDUIT     17.55     0  03:01      0.41    0.01    0.10
  YS02001920YS02001918 CONDUIT     20.45     0  03:03      0.37    0.02    0.12
  YS02001629YS02163301 CONDUIT     44.21     0  03:16      0.09    0.05    0.69
  YS02001619YS02001622 CONDUIT     40.23     0  02:57      0.58    0.06    0.31
  YS02001622YS02001625 CONDUIT     40.07     0  02:57      0.19    0.02    0.47
  YS02001625YS02001629 CONDUIT     40.40     0  03:11      0.19    0.02    0.46
  YS02163301YS02001633 CONDUIT     42.37     0  03:12      0.10    0.04    0.74
  YS02163601YS02164001 CONDUIT     87.67     0  03:20      0.13    0.08    0.80
  YS02164001YS02001641 CONDUIT     90.37     0  03:10      0.14    0.12    0.78
  YS02001641YS02001644 CONDUIT     83.28     0  03:14      0.13    0.27    0.79
  YS02001647YS02001649 CONDUIT    131.46     0  03:13      0.22    0.07    0.72
  YS02006553YS02006556 CONDUIT    131.13     0  03:03      0.22    0.11    0.72
  YS02006556YS02006558 CONDUIT    131.25     0  03:03      0.21    0.10    0.75
  YSB6556YSB1171       CONDUIT      8.24     0  02:23      0.04    0.01    0.52
  YS02001907YS02006553 CONDUIT    130.95     0  03:02      0.18    0.15    0.82
  YS02006558YS02006561 CONDUIT    191.97     0  02:57      2.02    0.42    0.37
  YS02001633YS02163601 CONDUIT     85.80     0  03:10      0.13    0.09    0.79
  YS02001644YS02001647 CONDUIT    128.55     0  03:04      0.22    0.08    0.70
  YS02001745YS02001748 CONDUIT     42.88     0  03:01      1.24    0.02    0.09
  YS02001748YS02001751 CONDUIT     60.04     0  03:20      0.97    0.03    0.25
  YS02001751YS02001754 CONDUIT    120.40     0  03:35      0.90    0.06    0.46
  YS02001754YS02001757 CONDUIT    175.96     0  03:41      0.33    0.07    0.80
  YS02001882YS02001884 CONDUIT      2.69     0  02:12      0.06    0.00    0.36
  YS02001884YS02001887 CONDUIT      8.11     0  02:08      0.06    0.01    0.46
  YS02001890YS02001895 CONDUIT     72.63     0  02:48      0.23    0.03    0.43
  YS02001895YS02001898 CONDUIT     72.53     0  02:51      0.45    0.13    0.29
  YS02001898YS02001901 CONDUIT     72.53     0  02:51      0.27    0.05    0.37
  YS02001901YS02001904 CONDUIT     72.25     0  02:53      0.23    0.11    0.42
  YS02001904YS02001907 CONDUIT     72.35     0  02:53      0.15    0.03    0.58
  YS02001887YS02001890 CONDUIT     72.84     0  02:48      0.18    0.12    0.51
  YS02001652YS02001649 CONDUIT     80.75     0  03:36      0.30    0.04    0.73
  YS02001655YS02001652 CONDUIT     68.41     0  03:05      0.96    0.03    0.49
  YS02001658YS02001655 CONDUIT     51.54     0  02:48      1.12    0.02    0.24
  YS02001661YS02001658 CONDUIT     51.54     0  02:47      1.25    0.02    0.10
  YS02001664YS02001661 CONDUIT     51.54     0  02:47      0.87    0.02    0.13
  YSB1154YSB6556       CONDUIT      8.14     0  02:20      0.19    0.01    0.41
  YSB1174YSB1171       CONDUIT      7.69     0  02:13      0.04    0.01    0.53
  YSB1171HS02004479    CONDUIT     15.21     0  02:22      0.54    0.01    0.40
  HS02004881HS02006253 CONDUIT     24.53     0  02:21      1.39    0.00    0.24
  YS02001793JiankangQianchi CONDUIT    193.28     0  02:59     11.40    0.02    0.50
  YS02001757CaochengTiaoxuchi CONDUIT    324.69     0  03:03      0.86    0.14    0.50
  WSF200WS02003060     CONDUIT    459.92     0  03:06      1.66    0.10    0.31
  1                    CONDUIT    769.11     0  03:10      3.10    0.27    0.35
  2                    CONDUIT    116.67     0  02:58      5.06    0.28    0.36
  3                    CONDUIT    305.92     0  02:56      8.77    0.49    0.50
  4                    CONDUIT      0.00     0  00:00      0.00    0.00    0.00
  CC-Pump-1            PUMP       200.00     0  02:50              1.00
  CC-Pump-2            PUMP       200.00     0  02:50              1.00
  JK-Pump-1            PUMP       193.28     0  02:59              0.64
  JK-Pump-2            PUMP       299.87     0  00:20              1.00
  XR-Pump-1            PUMP        95.00     0  00:20              1.00
  XR-Pump-2            PUMP        95.00     0  00:00              1.00
  XR-Pump-3            PUMP        95.00     0  00:00              1.00
  XR-Pump-4            PUMP        95.00     0  00:00              1.00
  
  
  ***************************
  Flow Classification Summary
  ***************************
  
  -------------------------------------------------------------------------------------
                      Adjusted    ---------- Fraction of Time in Flow Class ---------- 
                       /Actual         Up    Down  Sub   Sup   Up    Down  Norm  Inlet 
  Conduit               Length    Dry  Dry   Dry   Crit  Crit  Crit  Crit  Ltd   Ctrl  
  -------------------------------------------------------------------------------------
  WS02003066WSF200        1.00   0.04  0.01  0.00  0.00  0.94  0.00  0.00  0.81  0.00
  WS02006287WS02006284    1.00   0.04  0.02  0.00  0.71  0.23  0.00  0.00  0.79  0.00
  WS02006284WS02006280    1.00   0.05  0.00  0.00  0.00  0.00  0.00  0.95  0.00  0.00
  WS02006280WS02006229    1.00   0.05  0.00  0.00  0.00  0.00  0.00  0.95  0.00  0.00
  WS02006229WS02006228    1.00   0.00  0.00  0.00  1.00  0.00  0.00  0.00  0.00  0.00
  WS02006256WS02006235    1.00   0.00  0.00  0.00  1.00  0.00  0.00  0.00  0.00  0.00
  WS02006253WS02006251    1.00   0.03  0.02  0.00  0.95  0.00  0.00  0.00  0.00  0.00
  WS02006252WS02006251    1.00   0.10  0.00  0.00  0.00  0.00  0.90  0.00  0.00  0.00
  WS02006251WS02006249    1.00   0.00  0.00  0.00  1.00  0.00  0.00  0.00  0.35  0.00
  WS02006249WS02006248    1.00   0.00  0.00  0.00  0.86  0.00  0.14  0.00  0.00  0.00
  WS02006248WS02006247    1.00   0.00  0.00  0.00  0.97  0.00  0.00  0.02  0.25  0.00
  WS02006247WS02006245    1.00   0.00  0.00  0.00  0.97  0.00  0.00  0.02  0.00  0.00
  WS02006245WS02006243    1.00   0.01  0.00  0.00  0.94  0.00  0.00  0.05  0.02  0.00
  WS02006243WS02006242    1.00   0.01  0.00  0.00  0.99  0.00  0.00  0.00  0.28  0.00
  WS02006242WS02006240    1.00   0.01  0.00  0.00  0.99  0.00  0.00  0.00  0.00  0.00
  WS02006240WS02006239    1.00   0.01  0.00  0.00  0.95  0.00  0.00  0.04  0.02  0.00
  WS02006239WS02006238    1.00   0.00  0.00  0.00  1.00  0.00  0.00  0.00  0.02  0.00
  WS02006238WS02006235    1.00   0.00  0.00  0.00  1.00  0.00  0.00  0.00  0.00  0.00
  WS02006235WS02006234    1.00   0.00  0.00  0.00  0.95  0.00  0.04  0.00  0.00  0.00
  WS02006234WS02006232    1.00   0.00  0.00  0.00  0.99  0.00  0.00  0.00  0.04  0.00
  WS02006232WS02006231    1.00   0.00  0.00  0.00  0.99  0.00  0.00  0.00  0.00  0.00
  WS02006231WS02006230    1.00   0.01  0.00  0.00  0.52  0.00  0.47  0.00  0.00  0.00
  WS02006230WS02006229    1.00   0.00  0.00  0.00  0.99  0.00  0.00  0.01  0.01  0.00
  WS02006228WS02006109    1.00   0.00  0.00  0.00  1.00  0.00  0.00  0.00  0.00  0.00
  WS02006116WS02004401    1.00   0.03  0.00  0.00  0.97  0.00  0.00  0.00  0.00  0.00
  WS02006115WS02006116    1.00   0.03  0.00  0.00  0.97  0.00  0.00  0.01  0.00  0.00
  WS02006113WS02006111    1.00   0.01  0.00  0.00  0.00  0.98  0.00  0.00  0.14  0.00
  WS02006112WS02006115    1.00   0.02  0.01  0.00  0.97  0.00  0.00  0.00  0.00  0.00
  WS02006111WS02006112    1.00   0.02  0.00  0.00  0.97  0.00  0.00  0.00  0.95  0.00
  WS02006110WS02006113    1.00   0.00  0.01  0.00  0.99  0.00  0.00  0.00  0.00  0.00
  WS02006109WS02006110    1.00   0.00  0.00  0.00  1.00  0.00  0.00  0.00  0.00  0.00
  WS02004411WS02004412    1.00   0.04  0.00  0.00  0.96  0.00  0.00  0.00  0.00  0.00
  WS02004401WS02004402    1.00   0.03  0.00  0.00  0.97  0.00  0.00  0.00  0.00  0.00
  WS02004413WS02003067    1.00   0.04  0.01  0.00  0.00  0.00  0.95  0.00  0.00  0.00
  WS02004412WS02004413    1.00   0.04  0.00  0.00  0.96  0.00  0.00  0.00  0.01  0.00
  WS02004410WS02004411    1.00   0.04  0.00  0.00  0.96  0.00  0.00  0.00  0.01  0.00
  WS02004409WS02004410    1.00   0.04  0.00  0.00  0.96  0.00  0.00  0.00  0.03  0.00
  WS02004407WS02004409    1.00   0.04  0.00  0.00  0.96  0.00  0.00  0.00  0.91  0.00
  WS02004406WS02004407    1.00   0.00  0.04  0.00  0.96  0.00  0.00  0.00  0.00  0.00
  WS02004405WS02004406    1.00   0.00  0.00  0.00  1.00  0.00  0.00  0.00  0.03  0.00
  WS02004404WS02004405    1.00   0.00  0.00  0.00  1.00  0.00  0.00  0.00  0.00  0.00
  WS02004403WS02004404    1.00   0.00  0.03  0.00  0.97  0.00  0.00  0.00  0.00  0.00
  WS02004402WS02004403    1.00   0.03  0.00  0.00  0.97  0.00  0.00  0.00  0.00  0.00
  WS02004139WS02001211    1.00   0.00  0.00  0.00  1.00  0.00  0.00  0.00  0.00  0.00
  WS02004138WS02004139    1.00   0.00  0.00  0.00  1.00  0.00  0.00  0.00  1.00  0.00
  WS02003067WS02003066    1.00   0.05  0.00  0.00  0.94  0.00  0.00  0.00  0.00  0.00
  WS02001213WS02003059    1.00   0.00  0.00  0.00  1.00  0.00  0.00  0.00  0.00  0.00
  WS02001212WS02001213    1.00   0.00  0.00  0.00  0.73  0.00  0.27  0.00  0.00  0.00
  WS02001211WS02001212    1.00   0.00  0.00  0.00  1.00  0.00  0.00  0.00  0.00  0.00
  WS02003072WS02003073    1.00   0.00  0.00  0.00  0.00  0.00  0.00  1.00  0.00  0.00
  WS02003069WS02003072    1.00   0.00  0.00  0.00  1.00  0.00  0.00  0.00  0.36  0.00
  WS02003060WS02003069    1.00   0.00  0.00  0.00  1.00  0.00  0.00  0.00  0.18  0.00
  WS02003059WS02003060    1.00   0.00  0.00  0.00  1.00  0.00  0.00  0.00  0.01  0.00
  HS02004901HS02004770    1.00   0.05  0.00  0.00  0.95  0.00  0.00  0.00  0.03  0.00
  HS02004876HS02004881    1.00   0.00  0.00  0.00  1.00  0.00  0.00  0.00  0.00  0.00
  HS02004870HS02004876    1.00   0.00  0.00  0.00  1.00  0.00  0.00  0.00  0.95  0.00
  HS02004842HS02004848    1.00   0.00  0.05  0.00  0.95  0.00  0.00  0.00  0.70  0.00
  HS02004837HS02004842    1.00   0.00  0.00  0.00  1.00  0.00  0.00  0.00  0.11  0.00
  HS02004830HS02004837    1.00   0.00  0.00  0.00  1.00  0.00  0.00  0.00  0.99  0.00
  HS02004824HS02004830    1.00   0.00  0.00  0.00  1.00  0.00  0.00  0.00  0.00  0.00
  HS02004817HS02004824    1.00   0.00  0.00  0.00  1.00  0.00  0.00  0.00  1.00  0.00
  HS02004770HS02004777    1.00   0.00  0.05  0.00  0.95  0.00  0.00  0.00  0.08  0.00
  HS02004799HS02004480    1.00   0.00  0.01  0.00  0.94  0.00  0.05  0.00  0.00  0.00
  HS02004792HS02004799    1.00   0.00  0.00  0.00  1.00  0.00  0.00  0.00  0.98  0.00
  HS02004788HS02004792    1.00   0.00  0.00  0.00  1.00  0.00  0.00  0.00  0.98  0.00
  HS02004785HS02004788    1.00   0.00  0.00  0.00  1.00  0.00  0.00  0.00  0.00  0.00
  HS02004777HS02004785    1.00   0.00  0.00  0.00  1.00  0.00  0.00  0.00  0.22  0.00
  HS02004480HS02004478    1.00   0.05  0.00  0.00  0.74  0.00  0.00  0.21  0.00  0.00
  HS02004479HS02004480    1.00   0.01  0.00  0.00  0.99  0.00  0.00  0.00  0.16  0.00
  HS02004862HS02004870    1.00   0.00  0.00  0.00  1.00  0.00  0.00  0.00  0.05  0.00
  HS02004848HS02004852    1.00   0.05  0.00  0.00  0.95  0.00  0.00  0.00  0.70  0.00
  HS02004856HS02004862    1.00   0.00  0.08  0.00  0.92  0.00  0.00  0.00  0.73  0.00
  HS02004852HS02004856    1.00   0.05  0.01  0.00  0.94  0.00  0.00  0.00  0.82  0.00
  HS02004802HS02004478    1.00   0.05  0.01  0.00  0.94  0.00  0.00  0.00  0.00  0.00
  HS02004478WS02006287    1.00   0.06  0.00  0.00  0.94  0.00  0.00  0.00  0.81  0.00
  HS02004817HS02004807    1.00   0.00  0.05  0.00  0.95  0.00  0.00  0.00  0.00  0.00
  HS02004807HS02004802    1.00   0.05  0.00  0.00  0.95  0.00  0.00  0.00  0.01  0.00
  YS02001759YS02001757    1.00   0.00  0.00  0.00  1.00  0.00  0.00  0.00  0.17  0.00
  YS02001762YS02001759    1.00   0.00  0.00  0.00  1.00  0.00  0.00  0.00  0.05  0.00
  YS02001765YS02001762    1.00   0.00  0.00  0.00  1.00  0.00  0.00  0.00  0.23  0.00
  YS02001770YS02001767    1.00   0.00  0.00  0.00  1.00  0.00  0.00  0.00  0.00  0.00
  YS02001774YS02001770    1.00   0.00  0.06  0.00  0.94  0.00  0.00  0.00  0.07  0.00
  YS02001779YS02001774    1.00   0.00  0.00  0.00  1.00  0.00  0.00  0.00  0.27  0.00
  YS02001649YS02001757    1.00   0.00  0.00  0.00  1.00  0.00  0.00  0.00  0.19  0.00
  YS02001767YS02001765    1.00   0.00  0.00  0.00  1.00  0.00  0.00  0.00  0.01  0.00
  YS02006561YS02001783    1.00   0.08  0.00  0.00  0.00  0.92  0.00  0.00  0.72  0.00
  YS02001783YS02001784    1.00   0.00  0.08  0.00  0.92  0.00  0.00  0.00  0.07  0.00
  YS02001784YS02001785    1.00   0.00  0.00  0.00  1.00  0.00  0.00  0.00  0.26  0.00
  YS02001788YS02001790    1.00   0.00  0.00  0.00  0.08  0.92  0.00  0.00  0.99  0.00
  YS02001790YS02001791    1.00   0.00  0.00  0.00  0.00  1.00  0.00  0.00  0.39  0.00
  YS02001791YS02001793    1.00   0.00  0.00  0.00  0.00  1.00  0.00  0.00  0.00  0.00
  YS02001910YS02001907    1.00   0.00  0.00  0.00  0.99  0.00  0.00  0.01  0.13  0.00
  YS02001786YS02001788    1.00   0.00  0.00  0.00  0.08  0.92  0.00  0.00  0.00  0.00
  YS02001915YS02001910    1.00   0.00  0.00  0.00  1.00  0.00  0.00  0.00  0.25  0.00
  YS02001918YS02001915    1.00   0.00  0.00  0.00  1.00  0.00  0.00  0.00  0.80  0.00
  YS02001923YS02001920    1.00   0.00  0.00  0.00  1.00  0.00  0.00  0.00  1.00  0.00
  YS02001926YS02001923    1.00   0.00  0.04  0.00  0.00  0.00  0.96  0.00  0.00  0.00
  YS02001929YS02001926    1.00   0.00  0.05  0.00  0.95  0.00  0.00  0.00  0.86  0.00
  YS02001920YS02001918    1.00   0.00  0.00  0.00  1.00  0.00  0.00  0.00  0.00  0.00
  YS02001629YS02163301    1.00   0.07  0.00  0.00  0.93  0.00  0.00  0.00  0.00  0.00
  YS02001619YS02001622    1.00   0.05  0.00  0.00  0.95  0.00  0.00  0.00  0.00  0.00
  YS02001622YS02001625    1.00   0.05  0.00  0.00  0.95  0.00  0.00  0.00  0.14  0.00
  YS02001625YS02001629    1.00   0.05  0.03  0.00  0.90  0.00  0.02  0.00  0.00  0.00
  YS02163301YS02001633    1.00   0.00  0.07  0.00  0.93  0.00  0.00  0.00  0.00  0.00
  YS02163601YS02164001    1.00   0.00  0.04  0.00  0.96  0.00  0.00  0.00  0.00  0.00
  YS02164001YS02001641    1.00   0.00  0.04  0.00  0.96  0.00  0.00  0.00  0.07  0.00
  YS02001641YS02001644    1.00   0.00  0.00  0.00  1.00  0.00  0.00  0.00  0.00  0.00
  YS02001647YS02001649    1.00   0.00  0.08  0.00  0.92  0.00  0.00  0.00  0.01  0.00
  YS02006553YS02006556    1.00   0.00  0.00  0.00  1.00  0.00  0.00  0.00  0.03  0.00
  YS02006556YS02006558    1.00   0.00  0.00  0.00  1.00  0.00  0.00  0.00  0.00  0.00
  YSB6556YSB1171          1.00   0.02  0.03  0.00  0.95  0.00  0.00  0.00  0.00  0.00
  YS02001907YS02006553    1.00   0.00  0.00  0.00  1.00  0.00  0.00  0.00  0.00  0.00
  YS02006558YS02006561    1.00   0.08  0.00  0.00  0.00  0.92  0.00  0.00  0.71  0.00
  YS02001633YS02163601    1.00   0.00  0.00  0.00  1.00  0.00  0.00  0.00  0.20  0.00
  YS02001644YS02001647    1.00   0.00  0.08  0.00  0.92  0.00  0.00  0.00  0.00  0.00
  YS02001745YS02001748    1.00   0.00  0.00  0.00  0.00  0.00  0.00  1.00  0.00  0.00
  YS02001748YS02001751    1.00   0.00  0.00  0.00  0.97  0.03  0.00  0.00  0.76  0.00
  YS02001751YS02001754    1.00   0.00  0.00  0.00  0.92  0.00  0.00  0.08  0.02  0.00
  YS02001754YS02001757    1.00   0.00  0.00  0.00  1.00  0.00  0.00  0.00  0.27  0.00
  YS02001882YS02001884    1.00   0.06  0.00  0.00  0.93  0.00  0.00  0.00  0.00  0.00
  YS02001884YS02001887    1.00   0.03  0.01  0.00  0.96  0.00  0.00  0.00  0.00  0.00
  YS02001890YS02001895    1.00   0.00  0.07  0.00  0.93  0.00  0.00  0.00  0.00  0.00
  YS02001895YS02001898    1.00   0.07  0.00  0.00  0.92  0.00  0.01  0.00  0.00  0.00
  YS02001898YS02001901    1.00   0.07  0.01  0.00  0.93  0.00  0.00  0.00  0.02  0.00
  YS02001901YS02001904    1.00   0.07  0.00  0.00  0.93  0.00  0.00  0.00  0.00  0.00
  YS02001904YS02001907    1.00   0.00  0.07  0.00  0.93  0.00  0.00  0.00  0.00  0.00
  YS02001887YS02001890    1.00   0.00  0.00  0.00  0.99  0.00  0.01  0.00  0.00  0.00
  YS02001652YS02001649    1.00   0.00  0.00  0.00  1.00  0.00  0.00  0.00  0.27  0.00
  YS02001655YS02001652    1.00   0.00  0.00  0.00  0.92  0.00  0.00  0.08  0.02  0.00
  YS02001658YS02001655    1.00   0.00  0.06  0.00  0.91  0.03  0.00  0.00  0.78  0.00
  YS02001661YS02001658    1.00   0.06  0.00  0.00  0.00  0.94  0.00  0.00  0.72  0.00
  YS02001664YS02001661    1.00   0.05  0.00  0.00  0.95  0.00  0.00  0.00  0.86  0.00
  YSB1154YSB6556          1.00   0.05  0.00  0.00  0.95  0.00  0.00  0.00  0.02  0.00
  YSB1174YSB1171          1.00   0.03  0.01  0.00  0.96  0.00  0.00  0.00  0.00  0.00
  YSB1171HS02004479       1.00   0.01  0.00  0.00  0.97  0.00  0.00  0.02  0.13  0.00
  HS02004881HS02006253    1.00   0.03  0.00  0.00  0.69  0.01  0.00  0.27  0.47  0.00
  YS02001793JiankangQianchi    1.00   0.00  0.00  0.00  0.04  0.96  0.00  0.00  0.12  0.00
  YS02001757CaochengTiaoxuchi    1.00   0.00  0.10  0.00  0.90  0.00  0.00  0.00  0.00  0.00
  WSF200WS02003060        1.00   0.00  0.04  0.00  0.81  0.15  0.00  0.00  0.48  0.00
  1                       1.00   0.00  0.00  0.00  0.00  1.00  0.00  0.00  0.42  0.00
  2                       1.00   0.74  0.00  0.00  0.00  0.26  0.00  0.00  0.07  0.00
  3                       1.00   0.28  0.00  0.00  0.00  0.71  0.00  0.00  0.38  0.00
  4                       1.00   1.00  0.00  0.00  0.00  0.00  0.00  0.00  0.00  0.00
  
  
  *************************
  Conduit Surcharge Summary
  *************************
  
  ----------------------------------------------------------------------------
                                                           Hours        Hours 
                         --------- Hours Full --------   Above Full   Capacity
  Conduit                Both Ends  Upstream  Dnstream   Normal Flow   Limited
  ----------------------------------------------------------------------------
  WS02006229WS02006228        0.75      1.11      0.75      3.07         0.75
  WS02006256WS02006235        5.38      5.39      7.35      2.71         0.01
  WS02006252WS02006251        0.54      0.54      1.47      1.27         0.01
  WS02006251WS02006249        0.01      0.01      0.01      0.52         0.01
  WS02006249WS02006248        0.01      0.01      0.01      2.94         0.01
  WS02006247WS02006245        0.01      0.01      0.01      3.79         0.01
  WS02006243WS02006242        0.01      0.01      0.36      0.01         0.01
  WS02006242WS02006240        0.09      0.09      0.84      1.43         0.01
  WS02006240WS02006239        0.16      0.16      0.19      0.01         0.01
  WS02006239WS02006238        0.56      0.56      0.72      0.01         0.01
  WS02006238WS02006235        0.48      0.48      1.07      0.01         0.01
  WS02006235WS02006234        0.01      0.01      0.37      5.42         0.01
  WS02006234WS02006232        0.20      0.20      1.15      0.01         0.01
  WS02006232WS02006231        0.01      0.01      1.15      0.01         0.01
  WS02006231WS02006230        0.01      0.01      0.01      5.46         0.01
  WS02006230WS02006229        2.09      2.89      2.09      5.67         2.09
  WS02006228WS02006109        0.86      1.61      0.86      3.88         0.86
  WS02006111WS02006112        0.01      0.01      3.18      0.01         0.01
  WS02006110WS02006113        0.01      0.01      1.37      0.01         0.01
  WS02006109WS02006110        0.01      0.01      1.61      0.01         0.01
  WS02004404WS02004405        0.01      0.01      0.01      5.29         0.01
  WS02003072WS02003073        0.01      0.01      0.01      4.20         0.01
  YS02001793JiankangQianchi        0.01      0.01      0.35      0.01         0.01
  
  
  ***************
  Pumping Summary
  ***************
  
  ---------------------------------------------------------------------------------------------------------
                                                  Min       Avg       Max     Total     Power    % Time Off
                        Percent   Number of      Flow      Flow      Flow    Volume     Usage    Pump Curve
  Pump                 Utilized   Start-Ups       LPS       LPS       LPS  10^6 ltr     Kw-hr    Low   High
  ---------------------------------------------------------------------------------------------------------
  CC-Pump-1               60.28           3      0.00    135.41    200.00     2.172      9.65    0.0  100.0
  CC-Pump-2               51.76           6      0.00    102.11    200.00     1.445      6.50    0.0  100.0
  JK-Pump-1               82.98           7      0.00     96.00    193.28     1.752     34.25    0.0    0.0
  JK-Pump-2               85.09           9      0.00     95.29    299.87     1.712     32.76    0.0    0.0
  XR-Pump-1               87.22           8      0.00     70.23     95.00     1.625     30.67    0.0    0.0
  XR-Pump-2               89.36           5      0.00     74.37     95.00     1.767     32.78    0.0    0.0
  XR-Pump-3               82.96           7      0.00     60.36     95.00     1.454     27.80    0.0    0.0
  XR-Pump-4               93.61           6      0.00     70.63     95.00     1.938     36.28    0.0    0.0
  

  Analysis begun on:  Fri Dec 24 15:38:07 2021
  Analysis ended on:  Fri Dec 24 15:38:10 2021
  Total elapsed time: 00:00:03