
  EPA STORM WATER MANAGEMENT MODEL - VERSION 5.1 (Build 5.3.0.dev0)
  --------------------------------------------------------------

  WARNING 04: minimum elevation drop used for Conduit WS02004404WS02004405
  WARNING 03: negative offset ignored for Link YS02001904YS02001907
  
  *********************************************************
  NOTE: The summary statistics displayed in this report are
  based on results found at every computational time step,  
  not just on results from each reporting time step.
  *********************************************************
  
  ****************
  Analysis Options
  ****************
  Flow Units ............... LPS
  Process Models:
    Rainfall/Runoff ........ YES
    RDII ................... NO
    Snowmelt ............... NO
    Groundwater ............ NO
    Flow Routing ........... YES
    Ponding Allowed ........ NO
    Water Quality .......... NO
  Infiltration Method ...... HORTON
  Flow Routing Method ...... DYNWAVE
  Surcharge Method ......... EXTRAN
  Starting Date ............ 08/28/2015 08:00:00
  Ending Date .............. 08/28/2015 15:50:00
  Antecedent Dry Days ...... 8.0
  Report Time Step ......... 00:01:00
  Wet Time Step ............ 00:01:00
  Dry Time Step ............ 00:01:00
  Routing Time Step ........ 5.00 sec
  Variable Time Step ....... YES
  Maximum Trials ........... 8
  Number of Threads ........ 4
  Head Tolerance ........... 0.001500 m
  
  
  **************************        Volume         Depth
  Runoff Quantity Continuity     hectare-m            mm
  **************************     ---------       -------
  Total Precipitation ......         2.663         5.830
  Evaporation Loss .........         0.000         0.000
  Infiltration Loss ........         0.668         1.463
  Surface Runoff ...........         1.113         2.436
  Final Storage ............         0.882         1.932
  Continuity Error (%) .....        -0.018
  
  
  **************************        Volume        Volume
  Flow Routing Continuity        hectare-m      10^6 ltr
  **************************     ---------     ---------
  Dry Weather Inflow .......         0.616         6.165
  Wet Weather Inflow .......         1.112        11.120
  Groundwater Inflow .......         0.000         0.000
  RDII Inflow ..............         0.000         0.000
  External Inflow ..........         0.102         1.024
  External Outflow .........         1.600        15.997
  Flooding Loss ............         0.035         0.354
  Evaporation Loss .........         0.000         0.000
  Exfiltration Loss ........         0.000         0.000
  Initial Stored Volume ....         0.076         0.761
  Final Stored Volume ......         0.398         3.984
  Continuity Error (%) .....        -6.642
  
  
  *************************
  Highest Continuity Errors
  *************************
  Node JK-storage (-36.21%)
  Node HS02004842 (28.71%)
  Node YS02001884 (23.17%)
  Node YS02001774 (11.79%)
  Node YSB1171 (7.07%)
  
  
  ***************************
  Time-Step Critical Elements
  ***************************
  Link WS02006252WS02006251 (55.37%)
  Link 3 (35.20%)
  Link WS02006238WS02006235 (3.24%)
  Link WS02006280WS02006229 (1.92%)
  
  
  ********************************
  Highest Flow Instability Indexes
  ********************************
  Link WS02006113WS02006111 (46)
  Link WS02006111WS02006112 (20)
  Link YS02164001YS02001641 (11)
  Link YS02001629YS02163301 (11)
  Link YS02001641YS02001644 (10)
  
  
  *************************
  Routing Time Step Summary
  *************************
  Minimum Time Step           :     0.50 sec
  Average Time Step           :     0.92 sec
  Maximum Time Step           :     5.00 sec
  Percent in Steady State     :    -0.00
  Average Iterations per Step :     3.28
  Percent Not Converging      :    15.35
  
  
  ***************************
  Subcatchment Runoff Summary
  ***************************
  
  ------------------------------------------------------------------------------------------------------------------------------
                            Total      Total      Total      Total     Imperv       Perv      Total       Total     Peak  Runoff
                           Precip      Runon       Evap      Infil     Runoff     Runoff     Runoff      Runoff   Runoff   Coeff
  Subcatchment                 mm         mm         mm         mm         mm         mm         mm    10^6 ltr      LPS
  ------------------------------------------------------------------------------------------------------------------------------
  sub0                       5.83       0.00       0.00       0.41       4.16       0.00       4.16        0.00     1.37   0.713
  sub1                       5.83       0.00       0.00       0.64       3.93       0.00       3.93        0.03     7.19   0.675
  sub2                       5.83       0.00       0.00       2.16       2.77       0.00       2.77        0.03     6.37   0.475
  sub3                       5.83       0.00       0.00       2.16       2.73       0.00       2.73        0.06    13.12   0.469
  sub4                       5.83       0.00       0.00       0.64       3.80       0.00       3.80        0.08    14.74   0.651
  sub5                       5.83       0.00       0.00       0.41       4.11       0.00       4.11        0.05    12.79   0.705
  sub7                       5.83       0.00       0.00       0.52       4.05       0.00       4.05        0.01     4.51   0.695
  sub8                       5.83       0.00       0.00       0.52       4.04       0.00       4.04        0.03     7.96   0.693
  sub9                       5.83       0.00       0.00       0.52       4.04       0.00       4.04        0.02     5.90   0.693
  sub10                      5.83       0.00       0.00       0.47       4.07       0.00       4.07        0.04    12.76   0.699
  sub11                      5.83       0.00       0.00       0.47       4.09       0.00       4.09        0.05    14.97   0.701
  sub12                      5.83       0.00       0.00       0.76       3.88       0.00       3.88        0.03    12.68   0.666
  sub14                      5.83       0.00       0.00       0.52       4.04       0.00       4.04        0.04    11.53   0.693
  sub15                      5.83       0.00       0.00       1.75       3.10       0.00       3.10        0.05    15.64   0.532
  sub16                      5.83       0.00       0.00       1.92       2.99       0.00       2.99        0.03    11.14   0.512
  sub17                      5.83       0.00       0.00       1.87       3.03       0.00       3.03        0.03     9.00   0.520
  sub22                      5.83       0.00       0.00       2.51       2.53       0.00       2.53        0.16    51.19   0.435
  sub23                      5.83       0.00       0.00       2.16       2.80       0.00       2.80        0.13    43.62   0.481
  sub60                      5.83       0.00       0.00       0.70       2.71       0.00       2.71        0.82    76.21   0.465
  sub61                      5.83       0.00       0.00       0.99       2.90       0.00       2.90        0.90    95.28   0.498
  sub62                      5.83       0.00       0.00       0.47       3.11       0.00       3.11        0.96    97.52   0.534
  sub63                      5.83       0.00       0.00       1.69       2.59       0.00       2.59        0.78    88.77   0.444
  sub64                      5.83       0.00       0.00       0.87       2.59       0.00       2.59        0.79    72.36   0.444
  sub65                      5.83       0.00       0.00       0.76       2.62       0.00       2.62        0.81    73.39   0.450
  sub66                      5.83       0.00       0.00       1.69       2.26       0.00       2.26        0.69    66.37   0.388
  sub67                      5.83       0.00       0.00       0.47       3.43       0.00       3.43        1.06   124.64   0.588
  sub68                      5.83       0.00       0.00       0.82       3.09       0.00       3.09        0.95   105.22   0.530
  sub69                      5.83       0.00       0.00       0.87       3.34       0.00       3.34        0.78   104.02   0.573
  sub70                      5.83       3.41       0.00       3.14       4.09       0.00       4.09        0.94    84.08   0.442
  sub71                      5.83       0.00       0.00       0.47       2.97       0.00       2.97        0.70    68.20   0.510
  sub72                      5.83       0.00       0.00       0.41       2.09       0.00       2.09        0.43    31.96   0.358
  sub73                      5.83       3.98       0.00       3.33       4.15       0.00       4.15        0.97    72.10   0.423
  sub74                      5.83       0.00       0.00       4.37       1.01       0.00       1.01        0.40    57.95   0.173
  
  
  ******************
  Node Depth Summary
  ******************
  
  ---------------------------------------------------------------------------------
                                 Average  Maximum  Maximum  Time of Max    Reported
                                   Depth    Depth      HGL   Occurrence   Max Depth
  Node                 Type       Meters   Meters   Meters  days hr:min      Meters
  ---------------------------------------------------------------------------------
  WS02001211           JUNCTION     0.65     0.78     5.61     0  05:29        0.78
  WS02001212           JUNCTION     0.38     0.48     5.55     0  05:28        0.48
  WS02001213           JUNCTION     0.60     0.72     5.48     0  05:27        0.72
  WS02003069           JUNCTION     0.42     0.53     5.11     0  02:53        0.53
  WS02003072           JUNCTION     0.49     0.59     4.96     0  02:53        0.59
  WS02003073           JUNCTION     0.29     0.36     4.43     0  02:54        0.36
  WS02003060           JUNCTION     0.38     0.47     5.40     0  02:52        0.47
  WS02003066           JUNCTION     0.22     0.29     5.85     0  02:46        0.29
  WS02003059           JUNCTION     0.66     0.77     5.45     0  05:27        0.77
  WS02003067           JUNCTION     0.55     0.69     6.01     0  02:46        0.69
  WS02004401           JUNCTION     0.64     0.84     6.84     0  02:43        0.84
  WS02004402           JUNCTION     0.68     0.86     6.82     0  02:44        0.86
  WS02004403           JUNCTION     0.70     0.88     6.81     0  02:44        0.88
  WS02004404           JUNCTION     0.77     0.95     6.80     0  02:44        0.95
  WS02004406           JUNCTION     0.78     0.95     6.78     0  02:44        0.95
  WS02004409           JUNCTION     0.46     0.65     6.42     0  02:45        0.65
  WS02004410           JUNCTION     0.48     0.67     6.39     0  02:46        0.67
  WS02004411           JUNCTION     0.50     0.68     6.36     0  02:46        0.68
  WS02004412           JUNCTION     0.52     0.69     6.33     0  02:46        0.69
  WS02004413           JUNCTION     0.68     0.85     6.32     0  02:46        0.85
  WS02004405           JUNCTION     0.77     0.94     6.79     0  02:44        0.94
  WS02006109           JUNCTION     0.72     0.95     7.57     0  02:40        0.95
  WS02006110           JUNCTION     0.72     0.91     7.49     0  02:41        0.91
  WS02006111           JUNCTION     0.21     0.28     6.99     0  02:41        0.28
  WS02006112           JUNCTION     0.81     1.03     6.91     0  02:43        1.03
  WS02006113           JUNCTION     0.32     0.44     7.34     0  02:41        0.44
  WS02006115           JUNCTION     0.53     0.73     6.87     0  02:43        0.73
  WS02006116           JUNCTION     0.62     0.81     6.85     0  02:43        0.81
  WS02006230           JUNCTION     0.67     1.00     7.74     0  02:40        1.00
  WS02006231           JUNCTION     0.45     0.68     7.80     0  02:41        0.68
  WS02006232           JUNCTION     0.58     0.81     7.85     0  02:41        0.81
  WS02006234           JUNCTION     0.49     0.76     7.91     0  02:41        0.76
  WS02006235           JUNCTION     0.53     0.79     7.96     0  02:41        0.79
  WS02006238           JUNCTION     0.55     0.82     7.97     0  02:41        0.82
  WS02006240           JUNCTION     0.44     0.74     8.04     0  02:41        0.74
  WS02006242           JUNCTION     0.49     0.81     8.08     0  02:41        0.81
  WS02006243           JUNCTION     0.37     0.70     8.12     0  02:40        0.70
  WS02006245           JUNCTION     0.35     0.67     8.15     0  02:40        0.67
  WS02006247           JUNCTION     0.36     0.67     8.17     0  02:40        0.67
  WS02006248           JUNCTION     0.31     0.61     8.19     0  02:40        0.61
  WS02006249           JUNCTION     0.35     0.62     8.22     0  02:40        0.62
  WS02006239           JUNCTION     0.50     0.79     8.00     0  02:41        0.79
  WS02006251           JUNCTION     0.34     0.64     8.31     0  02:40        0.64
  WS02006252           JUNCTION     0.30     0.59     8.83     0  04:09        0.59
  WS02006253           JUNCTION     0.36     0.67     8.32     0  02:40        0.67
  WS02006256           JUNCTION     1.03     1.21     8.14     0  02:40        1.21
  WS02004138           JUNCTION     0.15     0.19     7.44     0  05:22        0.19
  WS02004407           JUNCTION     0.21     0.29     6.60     0  02:44        0.29
  WS02006228           JUNCTION     0.71     0.98     7.64     0  02:40        0.98
  WS02006229           JUNCTION     0.68     0.98     7.67     0  02:40        0.98
  WS02006280           JUNCTION     0.05     0.14     8.41     0  02:19        0.14
  WS02006284           JUNCTION     0.35     0.48     8.88     0  02:19        0.48
  WS02006287           JUNCTION     0.08     0.21     9.16     0  02:19        0.21
  WSF200               JUNCTION     0.20     0.30     5.54     0  02:49        0.30
  HS02004901           JUNCTION     0.11     0.23    10.05     0  02:16        0.23
  HS02004881           JUNCTION     0.01     0.02     9.05     0  02:18        0.02
  HS02004876           JUNCTION     0.04     0.10     9.13     0  02:17        0.10
  HS02004870           JUNCTION     0.01     0.04     9.33     0  02:19        0.04
  HS02004862           JUNCTION     0.01     0.05     9.43     0  02:20        0.05
  HS02004856           JUNCTION     0.07     0.10     9.53     0  02:19        0.10
  HS02004852           JUNCTION     0.01     0.03     9.54     0  02:20        0.03
  HS02004848           JUNCTION     0.01     0.03     9.63     0  02:19        0.03
  HS02004842           JUNCTION     0.33     0.36     9.63     0  02:18        0.36
  HS02004837           JUNCTION     0.03     0.05     9.63     0  02:18        0.05
  HS02004830           JUNCTION     0.04     0.06     9.53     0  02:19        0.06
  HS02004824           JUNCTION     0.02     0.04     9.44     0  02:22        0.04
  HS02004817           JUNCTION     0.42     0.52     9.37     0  02:19        0.52
  HS02004807           JUNCTION     0.11     0.20     9.37     0  02:19        0.20
  HS02004802           JUNCTION     0.15     0.23     9.36     0  02:19        0.23
  HS02004799           JUNCTION     0.10     0.25     9.46     0  02:17        0.25
  HS02004792           JUNCTION     0.02     0.10     9.62     0  02:16        0.10
  HS02004788           JUNCTION     0.02     0.07     9.97     0  02:17        0.07
  HS02004785           JUNCTION     0.03     0.13    10.03     0  02:17        0.13
  HS02004777           JUNCTION     0.13     0.25    10.05     0  02:16        0.25
  HS02004770           JUNCTION     0.10     0.22    10.05     0  02:16        0.22
  HS02004480           JUNCTION     0.06     0.20     9.44     0  02:17        0.20
  HS02004479           JUNCTION     0.10     0.23     9.44     0  02:17        0.23
  HS02004478           JUNCTION     0.05     0.12     9.35     0  02:18        0.12
  YS02001745           JUNCTION     0.15     0.31     7.83     0  04:57        0.30
  YS02001748           JUNCTION     0.49     0.75     7.82     0  04:56        0.73
  YS02001751           JUNCTION     0.67     0.97     7.85     0  04:57        0.95
  YS02001754           JUNCTION     0.92     1.33     7.94     0  04:17        1.22
  YS02001762           JUNCTION     1.12     1.59     7.99     0  04:34        1.44
  YS02001765           JUNCTION     1.07     1.59     8.04     0  04:34        1.41
  YS02001767           JUNCTION     1.03     1.60     8.09     0  04:34        1.40
  YS02001770           JUNCTION     1.03     1.67     8.16     0  04:34        1.44
  YS02001774           JUNCTION     1.10     1.76     8.18     0  03:58        1.54
  YS02001779           JUNCTION     0.85     1.55     8.24     0  04:04        1.32
  YS02001882           JUNCTION     0.28     0.45     7.17     0  02:54        0.45
  YS02001884           JUNCTION     0.38     0.55     7.17     0  02:54        0.55
  YS02001759           JUNCTION     1.15     1.56     7.92     0  04:34        1.46
  YS02001887           JUNCTION     0.46     0.63     7.17     0  02:53        0.63
  YS02001890           JUNCTION     0.49     0.66     7.17     0  02:53        0.66
  YS02001898           JUNCTION     0.26     0.42     7.15     0  02:55        0.42
  YS02001901           JUNCTION     0.37     0.54     7.15     0  02:59        0.54
  YS02001904           JUNCTION     0.35     0.52     7.15     0  02:59        0.52
  YS02001907           JUNCTION     0.68     0.86     7.15     0  02:58        0.86
  YS02001910           JUNCTION     0.47     0.64     7.15     0  02:59        0.64
  YS02001915           JUNCTION     0.27     0.43     7.15     0  02:59        0.43
  YS02001918           JUNCTION     0.08     0.10     7.16     0  03:03        0.10
  YS02001619           JUNCTION     0.63     0.90     7.83     0  04:54        0.90
  YS02001629           JUNCTION     0.98     1.32     7.87     0  04:55        1.31
  YS02001641           JUNCTION     1.08     1.46     7.89     0  04:57        1.42
  YS02001644           JUNCTION     1.09     1.45     7.89     0  04:57        1.42
  YS02001652           JUNCTION     0.93     1.41     8.00     0  04:49        1.23
  YS02001655           JUNCTION     0.70     1.43     8.28     0  04:49        1.00
  YS02001920           JUNCTION     0.17     0.20     7.21     0  03:02        0.20
  YS02001923           JUNCTION     0.06     0.08     7.34     0  03:02        0.08
  YS02001926           JUNCTION     0.14     0.17     7.62     0  03:01        0.17
  YS02001929           JUNCTION     0.07     0.09     7.78     0  03:01        0.09
  YS02001658           JUNCTION     0.44     0.69     7.83     0  04:52        0.69
  YS02001661           JUNCTION     0.24     0.42     7.83     0  05:01        0.42
  YS02001664           JUNCTION     0.07     0.11     8.04     0  02:48        0.11
  YS02001622           JUNCTION     0.65     0.93     7.83     0  04:54        0.93
  YS02001633           JUNCTION     1.07     1.43     7.88     0  04:57        1.40
  YS02001649           JUNCTION     1.13     1.52     7.91     0  04:50        1.43
  YS02001757           JUNCTION     1.25     1.60     7.86     0  04:57        1.55
  YS02001895           JUNCTION     0.25     0.41     7.16     0  02:53        0.41
  YS02001625           JUNCTION     0.93     1.22     7.83     0  04:55        1.22
  YS02163301           JUNCTION     1.01     1.36     7.87     0  04:57        1.35
  YS02163601           JUNCTION     1.12     1.49     7.89     0  04:57        1.47
  YS02164001           JUNCTION     1.06     1.43     7.89     0  04:57        1.40
  YS02001647           JUNCTION     0.92     1.29     7.90     0  04:49        1.23
  YSB1154              JUNCTION     0.24     0.38     9.44     0  02:17        0.38
  YSB6556              JUNCTION     0.13     0.27     9.44     0  02:17        0.27
  YSB1174              JUNCTION     0.19     0.33     9.44     0  02:17        0.33
  YSB1171              JUNCTION     0.39     0.53     9.44     0  02:17        0.53
  YS02006553           JUNCTION     0.68     0.87     7.15     0  03:01        0.87
  YS02006561           JUNCTION     0.14     0.22     6.88     0  02:56        0.22
  YS02006556           JUNCTION     0.66     0.84     7.15     0  03:00        0.84
  YS02006558           JUNCTION     0.70     0.88     7.15     0  03:00        0.88
  YS02001783           JUNCTION     0.24     0.40     6.54     0  02:56        0.40
  YS02001784           JUNCTION     0.27     0.43     6.50     0  02:56        0.43
  YS02001786           JUNCTION     0.23     0.36     6.39     0  02:57        0.36
  YS02001788           JUNCTION     0.17     0.27     6.25     0  02:57        0.27
  YS02001790           JUNCTION     0.21     0.33     5.98     0  02:57        0.33
  YS02001791           JUNCTION     0.14     0.22     5.69     0  02:57        0.22
  YS02001793           JUNCTION     0.08     0.14     4.97     0  02:49        0.14
  WS02004139           JUNCTION     0.59     0.72     5.63     0  05:29        0.72
  WSC                  OUTFALL      0.29     0.36     1.03     0  02:54        0.36
  3                    OUTFALL      0.08     0.21     6.21     0  02:40        0.21
  4                    OUTFALL      0.01     0.12     7.12     0  02:40        0.12
  5                    OUTFALL      0.00     0.00     5.00     0  00:00        0.00
  JK-storage           STORAGE      0.26     3.00     3.80     0  00:00        2.82
  CC-storage           STORAGE      0.51     0.78     7.78     0  04:56        0.78
  XR-storage           STORAGE      6.46     7.72     5.72     0  04:00        7.72
  
  
  *******************
  Node Inflow Summary
  *******************
  
  -------------------------------------------------------------------------------------------------
                                  Maximum  Maximum                  Lateral       Total        Flow
                                  Lateral    Total  Time of Max      Inflow      Inflow     Balance
                                   Inflow   Inflow   Occurrence      Volume      Volume       Error
  Node                 Type           LPS      LPS  days hr:min    10^6 ltr    10^6 ltr     Percent
  -------------------------------------------------------------------------------------------------
  WS02001211           JUNCTION      7.35   387.80     0  05:33       0.207        6.78       0.529
  WS02001212           JUNCTION      0.00   387.94     0  05:33           0        6.75       0.288
  WS02001213           JUNCTION      0.00   388.09     0  05:33           0        6.73       0.363
  WS02003069           JUNCTION      0.32   795.88     0  02:52     0.00902        13.5       0.215
  WS02003072           JUNCTION      0.00   795.50     0  02:53           0        13.5       0.269
  WS02003073           JUNCTION      1.82   797.06     0  02:54      0.0514        13.5       0.305
  WS02003060           JUNCTION     16.53   795.64     0  02:52       0.466        13.6       0.205
  WS02003066           JUNCTION      0.00   514.76     0  02:46           0        6.43       0.062
  WS02003059           JUNCTION      0.00   388.34     0  05:32           0        6.71       0.562
  WS02003067           JUNCTION      0.00   514.69     0  02:46           0        6.44       0.134
  WS02004401           JUNCTION      0.00   518.87     0  02:43           0        6.64       0.280
  WS02004402           JUNCTION      0.00   518.48     0  02:43           0        6.63       0.269
  WS02004403           JUNCTION      0.00   518.15     0  02:44           0        6.61       0.248
  WS02004404           JUNCTION      0.16   518.27     0  02:44     0.00457         6.6       0.191
  WS02004406           JUNCTION      0.00   518.20     0  02:44           0        6.57       0.468
  WS02004409           JUNCTION      0.00   518.04     0  02:44           0        6.53       0.212
  WS02004410           JUNCTION      0.00   516.95     0  02:45           0        6.52       0.245
  WS02004411           JUNCTION      0.00   515.96     0  02:45           0         6.5       0.257
  WS02004412           JUNCTION      0.00   515.31     0  02:45           0        6.48       0.284
  WS02004413           JUNCTION      0.00   514.88     0  02:46           0        6.46       0.429
  WS02004405           JUNCTION      0.04   518.24     0  02:44     0.00107        6.58       0.286
  WS02006109           JUNCTION      1.23   517.81     0  02:40      0.0347        6.72       0.264
  WS02006110           JUNCTION      0.00   517.83     0  02:41           0         6.7       0.238
  WS02006111           JUNCTION      0.00   537.20     0  02:41           0        6.68       0.045
  WS02006112           JUNCTION      9.00   524.97     0  02:41       0.026         6.7       0.384
  WS02006113           JUNCTION      0.00   518.01     0  02:41           0        6.69       0.103
  WS02006115           JUNCTION      0.00   522.23     0  02:41           0        6.68       0.243
  WS02006116           JUNCTION      0.00   519.86     0  02:42           0        6.66       0.236
  WS02006230           JUNCTION     10.28   395.45     0  04:12        0.29        5.82       0.178
  WS02006231           JUNCTION      0.00   386.78     0  04:12           0        5.54       0.128
  WS02006232           JUNCTION      0.00   386.64     0  04:12           0        5.55       0.222
  WS02006234           JUNCTION      0.00   388.11     0  04:11           0        5.55       0.066
  WS02006235           JUNCTION      0.00   388.11     0  04:11           0         5.6       0.151
  WS02006238           JUNCTION      0.00   332.36     0  05:50           0        3.47       0.116
  WS02006240           JUNCTION      0.00   334.22     0  05:50           0        3.44       0.141
  WS02006242           JUNCTION      0.00   335.82     0  05:51           0        3.44       0.167
  WS02006243           JUNCTION      0.00   337.74     0  06:11           0        3.41      -0.516
  WS02006245           JUNCTION      0.00   344.39     0  06:11           0        3.42       0.186
  WS02006247           JUNCTION      0.00   349.92     0  06:11           0        3.42       0.014
  WS02006248           JUNCTION      0.00   355.01     0  06:11           0        3.42      -0.066
  WS02006249           JUNCTION      0.00   418.88     0  02:40           0        3.57       0.107
  WS02006239           JUNCTION      0.00   333.89     0  05:50           0        3.46       0.161
  WS02006251           JUNCTION      0.08   421.80     0  02:40     0.00217         3.6      -0.003
  WS02006252           JUNCTION      0.00   400.00     0  06:10           0        3.42       0.003
  WS02006253           JUNCTION      1.37    39.91     0  02:18     0.00336       0.179      -0.002
  WS02006256           JUNCTION      0.00   600.00     0  03:30           0        4.53       0.065
  WS02004138           JUNCTION      0.00   380.00     0  05:20           0        6.61       0.077
  WS02004407           JUNCTION      0.00   518.11     0  02:44           0        6.54       0.092
  WS02006228           JUNCTION      0.00   516.59     0  02:40           0         6.7       0.170
  WS02006229           JUNCTION      0.00   516.57     0  02:40           0        6.71       0.158
  WS02006280           JUNCTION      0.00   205.15     0  02:19           0       0.897       0.008
  WS02006284           JUNCTION      0.10   205.15     0  02:19      0.0027       0.898       0.119
  WS02006287           JUNCTION      0.00   205.03     0  02:19           0       0.896       0.081
  WSF200               JUNCTION      0.00   514.77     0  02:47           0        6.42       0.057
  HS02004901           JUNCTION     11.14    11.14     0  02:11      0.0313      0.0314       5.928
  HS02004881           JUNCTION      4.51    38.85     0  02:18      0.0136       0.143       0.138
  HS02004876           JUNCTION      7.19    34.65     0  02:18      0.0261        0.13       0.407
  HS02004870           JUNCTION      7.96    27.60     0  02:18      0.0258       0.104       0.102
  HS02004862           JUNCTION      6.57    20.16     0  02:19      0.0314      0.0785       0.213
  HS02004856           JUNCTION      5.90    13.64     0  02:18      0.0194      0.0486       3.046
  HS02004852           JUNCTION      0.00     8.10     0  02:19           0      0.0292       0.174
  HS02004848           JUNCTION     13.12    13.12     0  02:22      0.0615      0.0615       0.071
  HS02004842           JUNCTION      0.00     5.46     0  02:32           0      0.0453      40.265
  HS02004837           JUNCTION     19.11    23.75     0  02:18       0.224       0.256       0.319
  HS02004830           JUNCTION      0.15    23.88     0  02:18     0.00423       0.247       0.502
  HS02004824           JUNCTION     14.79    38.49     0  02:22      0.0805       0.326       0.165
  HS02004817           JUNCTION      0.60    39.08     0  02:22      0.0169       0.342       5.118
  HS02004807           JUNCTION     14.97    52.72     0  02:20      0.0475       0.373       1.146
  HS02004802           JUNCTION      0.00    53.00     0  02:22           0       0.369       1.110
  HS02004799           JUNCTION     11.53   129.85     0  02:16      0.0384       0.465       0.490
  HS02004792           JUNCTION     51.47   118.56     0  02:16       0.168       0.427       0.096
  HS02004788           JUNCTION     17.31    69.06     0  02:17         0.1       0.261       0.150
  HS02004785           JUNCTION      0.15    52.11     0  02:16     0.00423       0.162       0.299
  HS02004777           JUNCTION      0.03    52.39     0  02:15    0.000846       0.162       3.292
  HS02004770           JUNCTION     43.62    53.57     0  02:13       0.134       0.163       1.934
  HS02004480           JUNCTION      0.00   153.13     0  02:17           0       0.543       0.134
  HS02004479           JUNCTION      0.00    23.74     0  02:19           0      0.0899       0.818
  HS02004478           JUNCTION      0.00   205.02     0  02:18           0       0.897       0.069
  YS02001745           JUNCTION     76.22   112.00     0  06:06       0.821       0.878       0.149
  YS02001748           JUNCTION      0.04   236.08     0  04:22     0.00127        1.08       0.959
  YS02001751           JUNCTION      0.01   253.07     0  04:31     0.00031        1.03       1.600
  YS02001754           JUNCTION      0.26   116.63     0  03:33     0.00733       0.828       2.287
  YS02001762           JUNCTION      0.00   131.14     0  02:43           0       0.901       2.344
  YS02001765           JUNCTION      0.00   123.07     0  03:01           0       0.902       2.592
  YS02001767           JUNCTION      0.54   142.25     0  02:59      0.0151       0.921       3.790
  YS02001770           JUNCTION     97.68   149.79     0  02:58        0.96        1.05       2.793
  YS02001774           JUNCTION      0.00    59.79     0  02:58           0       0.213      13.363
  YS02001779           JUNCTION      0.01    54.74     0  02:58    0.000141      0.0984      12.566
  YS02001882           JUNCTION      0.00     3.95     0  02:10           0     0.00526      46.815
  YS02001884           JUNCTION      0.00    11.35     0  02:07           0       0.021      30.153
  YS02001759           JUNCTION     95.32   217.23     0  02:57       0.896        1.76       1.298
  YS02001887           JUNCTION    125.09   125.09     0  02:45        1.07        1.08       0.667
  YS02001890           JUNCTION      0.00   124.82     0  02:47           0        1.06       0.748
  YS02001898           JUNCTION      0.00   124.70     0  02:49           0        1.04       0.211
  YS02001901           JUNCTION      0.00   124.81     0  02:48           0        1.04       0.531
  YS02001904           JUNCTION      0.00   124.21     0  02:48           0        1.04       0.494
  YS02001907           JUNCTION      0.00   225.40     0  02:57           0        2.23       0.997
  YS02001910           JUNCTION      0.00   103.08     0  03:00           0         1.2       0.853
  YS02001915           JUNCTION     68.22   102.75     0  03:01       0.702        1.21       0.379
  YS02001918           JUNCTION      0.00    34.80     0  03:02           0       0.504       0.224
  YS02001619           JUNCTION     66.37    66.37     0  03:01       0.693       0.697       1.241
  YS02001629           JUNCTION      0.00   131.11     0  04:55           0       0.694       3.367
  YS02001641           JUNCTION      0.00   160.43     0  03:00           0        1.35       1.528
  YS02001644           JUNCTION     72.40   232.10     0  03:00       0.788        2.11       1.232
  YS02001652           JUNCTION      0.00   115.95     0  02:46           0       0.801       2.476
  YS02001655           JUNCTION      0.15   226.72     0  04:47     0.00434       0.952       1.949
  YS02001920           JUNCTION      2.87    34.82     0  03:02      0.0809       0.506       0.405
  YS02001923           JUNCTION      0.04    31.96     0  03:02     0.00106       0.425       0.071
  YS02001926           JUNCTION      0.05    31.99     0  03:01     0.00147       0.426       0.507
  YS02001929           JUNCTION     31.96    31.96     0  03:01       0.425       0.425       0.069
  YS02001658           JUNCTION      0.00   214.19     0  04:35           0        1.13       0.942
  YS02001661           JUNCTION      0.00   189.70     0  04:38           0       0.971       0.244
  YS02001664           JUNCTION     88.77    88.77     0  02:48       0.783       0.783       0.014
  YS02001622           JUNCTION      0.00    96.96     0  03:18           0       0.764       3.206
  YS02001633           JUNCTION     73.59   160.06     0  03:08       0.811         1.4       2.168
  YS02001649           JUNCTION      0.00   337.36     0  03:02           0         2.8       1.335
  YS02001757           JUNCTION      0.00   556.49     0  03:01           0        5.24       1.786
  YS02001895           JUNCTION      0.00   124.68     0  02:48           0        1.05       0.357
  YS02001625           JUNCTION      0.00   133.30     0  04:55           0       0.804       4.945
  YS02163301           JUNCTION      0.00   113.25     0  03:21           0       0.612       3.916
  YS02163601           JUNCTION      0.11   160.77     0  03:01      0.0031        1.36       2.191
  YS02164001           JUNCTION      0.00   159.09     0  02:56           0        1.34       1.352
  YS02001647           JUNCTION      0.00   229.95     0  03:00           0        2.07       1.180
  YSB1154              JUNCTION     12.79    12.79     0  02:16      0.0465      0.0479       3.108
  YSB6556              JUNCTION      0.00    12.78     0  02:18           0      0.0489       2.613
  YSB1174              JUNCTION     12.68    12.68     0  02:10      0.0339       0.035       3.812
  YSB1171              JUNCTION      0.00    23.69     0  02:16           0      0.0894       7.605
  YS02006553           JUNCTION      0.00   225.36     0  02:57           0        2.22       0.647
  YS02006561           JUNCTION      0.00   334.90     0  03:00           0        3.15       0.023
  YS02006556           JUNCTION      0.00   225.30     0  02:57           0        2.23       0.467
  YS02006558           JUNCTION    106.10   330.75     0  02:55       0.975        3.17       0.140
  YS02001783           JUNCTION      0.00   330.72     0  02:56           0        3.14       0.049
  YS02001784           JUNCTION      1.06   331.77     0  02:56      0.0299        3.17       0.080
  YS02001786           JUNCTION      0.06   331.84     0  02:57     0.00159        3.17       0.078
  YS02001788           JUNCTION      0.07   331.91     0  02:57       0.002        3.17       0.045
  YS02001790           JUNCTION      0.15   332.07     0  02:57     0.00437        3.17       0.056
  YS02001791           JUNCTION      0.00   332.06     0  02:57           0        3.17       0.028
  YS02001793           JUNCTION      0.00   332.06     0  02:57           0        3.17       0.012
  WS02004139           JUNCTION      0.32   380.32     0  05:22     0.00905        6.62       0.591
  WSC                  OUTFALL       0.00   796.66     0  02:54           0        13.5       0.000
  3                    OUTFALL       0.00   514.52     0  02:40           0        2.37       0.000
  4                    OUTFALL       0.00   134.19     0  02:40           0       0.147       0.000
  5                    OUTFALL       0.00     0.00     0  00:00           0           0       0.000 ltr
  JK-storage           STORAGE       0.00   332.06     0  02:57           0        3.32     -26.586
  CC-storage           STORAGE       0.00   555.88     0  03:01           0        5.13       0.629
  XR-storage           STORAGE     323.40   323.40     0  02:59        7.02        7.62      -0.001
  
  
  **********************
  Node Surcharge Summary
  **********************
  
  Surcharging occurs when water rises above the top of the highest conduit.
  ---------------------------------------------------------------------
                                               Max. Height   Min. Depth
                                   Hours       Above Crown    Below Rim
  Node                 Type      Surcharged         Meters       Meters
  ---------------------------------------------------------------------
  WS02006109           JUNCTION        0.79          0.131        1.689
  WS02006112           JUNCTION        0.20          0.029        1.651
  WS02006232           JUNCTION        0.90          0.112        1.368
  WS02006234           JUNCTION        0.13          0.037        1.203
  WS02006235           JUNCTION        0.32          0.084        1.206
  WS02006238           JUNCTION        0.55          0.102        1.328
  WS02006240           JUNCTION        0.10          0.034        1.356
  WS02006242           JUNCTION        0.34          0.080        0.740
  WS02006239           JUNCTION        0.14          0.053        1.237
  WS02006252           JUNCTION        1.25          0.190        0.910
  WS02006228           JUNCTION        0.69          0.154        2.046
  YS02001754           JUNCTION        2.53          0.279        0.871
  YS02001762           JUNCTION        5.07          0.585        0.565
  YS02001765           JUNCTION        4.88          0.585        0.515
  YS02001767           JUNCTION        4.58          0.603        0.427
  YS02001770           JUNCTION        4.37          0.638        0.282
  YS02001774           JUNCTION        5.02          0.761        0.289
  YS02001779           JUNCTION        2.00          0.550        0.130
  YS02001759           JUNCTION        5.16          0.557        0.653
  YS02001641           JUNCTION        4.97          0.455        0.645
  YS02001644           JUNCTION        4.98          0.453        0.467
  YS02001652           JUNCTION        3.21          0.377        0.753
  YS02001655           JUNCTION        0.01          0.433        0.767
  YS02001633           JUNCTION        4.78          0.409        0.651
  YS02001649           JUNCTION        5.11          0.518        0.532
  YS02001757           JUNCTION        5.31          0.599        0.611
  YS02001625           JUNCTION        3.58          0.223        0.557
  YS02163301           JUNCTION        4.43          0.355        0.675
  YS02163601           JUNCTION        5.10          0.495        0.585
  YS02164001           JUNCTION        4.89          0.435        0.665
  YS02001647           JUNCTION        3.50          0.293        0.607
  
  
  *********************
  Node Flooding Summary
  *********************
  
  Flooding refers to all water that overflows a node, whether it ponds or not.
  --------------------------------------------------------------------------
                                                             Total   Maximum
                                 Maximum   Time of Max       Flood    Ponded
                        Hours       Rate    Occurrence      Volume     Depth
  Node                 Flooded       LPS   days hr:min    10^6 ltr    Meters
  --------------------------------------------------------------------------
  XR-storage              0.94    275.93      0  04:10       0.354     0.000
  
  
  **********************
  Storage Volume Summary
  **********************
  
  --------------------------------------------------------------------------------------------------
                         Average     Avg  Evap Exfil       Maximum     Max    Time of Max    Maximum
                          Volume    Pcnt  Pcnt  Pcnt        Volume    Pcnt     Occurrence    Outflow
  Storage Unit           1000 m3    Full  Loss  Loss       1000 m3    Full    days hr:min        LPS
  --------------------------------------------------------------------------------------------------
  JK-storage               0.013       5     0     0         0.151      52       0  00:00     600.00
  CC-storage               1.415       9     0     0         2.169      14       0  04:56     400.00
  XR-storage               0.775      84     0     0         0.926     100       0  04:00     380.00
  
  
  ***********************
  Outfall Loading Summary
  ***********************
  
  -----------------------------------------------------------
                         Flow       Avg       Max       Total
                         Freq      Flow      Flow      Volume
  Outfall Node           Pcnt       LPS       LPS    10^6 ltr
  -----------------------------------------------------------
  WSC                   99.99    544.18    796.66      13.480
  3                     82.56    148.53    514.52       2.369
  4                     18.89     36.92    134.19       0.147
  5                      0.00      0.00      0.00       0.000
  -----------------------------------------------------------
  System                50.36    729.63   1294.95      15.997
  
  
  ********************
  Link Flow Summary
  ********************
  
  -----------------------------------------------------------------------------
                                 Maximum  Time of Max   Maximum    Max/    Max/
                                  |Flow|   Occurrence   |Veloc|    Full    Full
  Link                 Type          LPS  days hr:min     m/sec    Flow   Depth
  -----------------------------------------------------------------------------
  WS02003066WSF200     CONDUIT    514.77     0  02:47      2.70    0.09    0.23
  WS02006287WS02006284 CONDUIT    205.05     0  02:19      1.62    0.10    0.22
  WS02006284WS02006280 CONDUIT    205.15     0  02:19      1.86    0.09    0.20
  WS02006280WS02006229 CONDUIT    205.15     0  02:19      2.99    0.04    0.14
  WS02006229WS02006228 CONDUIT    516.59     0  02:40      1.03    1.71    1.00
  WS02006256WS02006235 CONDUIT    166.25     0  00:01      2.58    1.76    1.00
  WS02006253WS02006251 CONDUIT     42.41     0  02:48      0.49    0.13    0.93
  WS02006252WS02006251 CONDUIT    400.61     0  06:10      3.19    1.47    1.00
  WS02006251WS02006249 CONDUIT    418.88     0  02:40      1.17    1.21    0.90
  WS02006249WS02006248 CONDUIT    355.01     0  06:11      1.16    1.94    0.86
  WS02006248WS02006247 CONDUIT    349.92     0  06:11      1.12    0.76    0.91
  WS02006247WS02006245 CONDUIT    344.39     0  06:11      1.09    2.73    0.95
  WS02006245WS02006243 CONDUIT    337.74     0  06:11      1.10    1.00    0.97
  WS02006243WS02006242 CONDUIT    335.82     0  05:51      0.97    0.72    1.00
  WS02006242WS02006240 CONDUIT    334.22     0  05:50      0.91    1.33    1.00
  WS02006240WS02006239 CONDUIT    333.89     0  05:50      0.96    1.05    1.00
  WS02006239WS02006238 CONDUIT    332.36     0  05:50      0.90    1.06    1.00
  WS02006238WS02006235 CONDUIT    330.55     0  05:50      1.25    0.74    1.00
  WS02006235WS02006234 CONDUIT    388.11     0  04:11      1.04    4.09    1.00
  WS02006234WS02006232 CONDUIT    386.64     0  04:12      1.13    0.78    1.00
  WS02006232WS02006231 CONDUIT    386.78     0  04:12      1.05    0.81    0.98
  WS02006231WS02006230 CONDUIT    385.18     0  04:12      1.35    5.84    0.92
  WS02006230WS02006229 CONDUIT    394.80     0  04:13      1.03    8.79    1.00
  WS02006228WS02006109 CONDUIT    516.58     0  02:40      1.03    2.26    1.00
  WS02006116WS02004401 CONDUIT    518.87     0  02:43      0.75    0.72    0.82
  WS02006115WS02006116 CONDUIT    519.86     0  02:42      0.83    0.67    0.74
  WS02006113WS02006111 CONDUIT    537.20     0  02:41      2.43    0.64    0.45
  WS02006112WS02006115 CONDUIT    522.23     0  02:41      0.73    0.31    0.86
  WS02006111WS02006112 CONDUIT    520.78     0  02:41      1.46    0.25    0.67
  WS02006110WS02006113 CONDUIT    518.01     0  02:41      1.23    0.47    0.78
  WS02006109WS02006110 CONDUIT    517.83     0  02:41      1.03    1.00    1.00
  WS02004411WS02004412 CONDUIT    515.31     0  02:45      0.90    0.73    0.68
  WS02004401WS02004402 CONDUIT    518.48     0  02:43      0.77    0.62    0.85
  WS02004413WS02003067 CONDUIT    514.69     0  02:46      1.08    0.22    0.58
  WS02004412WS02004413 CONDUIT    514.88     0  02:46      0.80    0.34    0.77
  WS02004410WS02004411 CONDUIT    515.96     0  02:45      0.92    0.70    0.67
  WS02004409WS02004410 CONDUIT    516.95     0  02:45      0.94    0.67    0.66
  WS02004407WS02004409 CONDUIT    518.04     0  02:44      1.43    0.18    0.47
  WS02004406WS02004407 CONDUIT    518.11     0  02:44      1.02    0.23    0.62
  WS02004405WS02004406 CONDUIT    518.20     0  02:44      0.67    1.02    0.94
  WS02004404WS02004405 CONDUIT    518.21     0  02:44      0.84    5.08    0.95
  WS02004403WS02004404 CONDUIT    518.11     0  02:44      0.74    0.37    0.91
  WS02004402WS02004403 CONDUIT    518.15     0  02:44      0.76    0.74    0.87
  WS02004139WS02001211 CONDUIT    380.45     0  05:33      0.81    0.48    0.58
  WS02004138WS02004139 CONDUIT    380.00     0  05:22      3.33    0.08    0.43
  WS02003067WS02003066 CONDUIT    514.76     0  02:46      1.18    0.16    0.41
  WS02001213WS02003059 CONDUIT    388.34     0  05:32      0.80    0.64    0.73
  WS02001212WS02001213 CONDUIT    388.09     0  05:33      1.30    0.60    0.44
  WS02001211WS02001212 CONDUIT    387.94     0  05:33      0.76    0.30    0.63
  WS02003072WS02003073 CONDUIT    795.23     0  02:54      1.63    1.72    0.45
  WS02003069WS02003072 CONDUIT    795.50     0  02:53      1.54    0.38    0.47
  WS02003060WS02003069 CONDUIT    795.56     0  02:52      1.79    0.31    0.42
  WS02003059WS02003060 CONDUIT    388.67     0  05:32      0.91    0.25    0.61
  HS02004901HS02004770 CONDUIT     10.28     0  02:16      0.05    0.04    0.32
  HS02004876HS02004881 CONDUIT     34.72     0  02:19      0.56    0.37    0.09
  HS02004870HS02004876 CONDUIT     27.58     0  02:19      0.39    0.02    0.10
  HS02004842HS02004848 CONDUIT      5.46     0  02:32      0.03    0.00    0.27
  HS02004837HS02004842 CONDUIT      5.63     0  02:32      0.41    0.00    0.29
  HS02004830HS02004837 CONDUIT     23.73     0  02:18      0.44    0.02    0.08
  HS02004824HS02004830 CONDUIT     23.88     0  02:19      0.48    0.03    0.07
  HS02004817HS02004824 CONDUIT     38.48     0  02:22      0.17    0.02    0.40
  HS02004770HS02004777 CONDUIT     52.36     0  02:15      0.23    0.10    0.33
  HS02004799HS02004480 CONDUIT    129.66     0  02:17      0.59    0.16    0.31
  HS02004792HS02004799 CONDUIT    118.50     0  02:16      0.68    0.07    0.25
  HS02004788HS02004792 CONDUIT     69.00     0  02:17      0.83    0.05    0.12
  HS02004785HS02004788 CONDUIT     52.01     0  02:17      0.51    0.39    0.14
  HS02004777HS02004785 CONDUIT     51.96     0  02:16      0.27    0.06    0.27
  HS02004480HS02004478 CONDUIT    153.09     0  02:17      0.96    0.64    0.23
  HS02004479HS02004480 CONDUIT     23.95     0  02:19      0.15    0.02    0.31
  HS02004862HS02004870 CONDUIT     20.12     0  02:20      0.47    0.02    0.06
  HS02004848HS02004852 CONDUIT      8.10     0  02:19      0.31    0.01    0.04
  HS02004856HS02004862 CONDUIT     13.61     0  02:19      0.34    0.01    0.06
  HS02004852HS02004856 CONDUIT      8.07     0  02:20      0.12    0.01    0.09
  HS02004802HS02004478 CONDUIT     53.38     0  02:22      0.30    0.05    0.26
  HS02004478WS02006287 CONDUIT    205.03     0  02:19      1.32    0.06    0.17
  HS02004817HS02004807 CONDUIT     39.63     0  02:24      0.11    0.02    0.51
  HS02004807HS02004802 CONDUIT     53.00     0  02:22      0.25    0.10    0.30
  YS02001759YS02001757 CONDUIT    218.65     0  02:56      0.28    0.16    1.00
  YS02001762YS02001759 CONDUIT    122.18     0  02:57      0.17    0.14    1.00
  YS02001765YS02001762 CONDUIT    131.14     0  02:43      0.23    0.12    1.00
  YS02001770YS02001767 CONDUIT    141.72     0  02:59      0.32    0.56    1.00
  YS02001774YS02001770 CONDUIT     59.79     0  02:58      0.15    0.04    1.00
  YS02001779YS02001774 CONDUIT     54.73     0  02:58      0.07    0.03    1.00
  YS02001649YS02001757 CONDUIT    335.86     0  03:03      0.43    0.20    1.00
  YS02001767YS02001765 CONDUIT    123.07     0  03:01      0.26    0.15    1.00
  YS02006561YS02001783 CONDUIT    330.72     0  02:56      1.81    0.17    0.39
  YS02001783YS02001784 CONDUIT    330.71     0  02:56      1.25    0.46    0.52
  YS02001784YS02001785 CONDUIT    331.78     0  02:57      1.34    0.77    0.50
  YS02001788YS02001790 CONDUIT    331.92     0  02:57      1.90    0.24    0.38
  YS02001790YS02001791 CONDUIT    332.06     0  02:57      2.19    0.36    0.34
  YS02001791YS02001793 CONDUIT    332.06     0  02:57      4.47    0.14    0.22
  YS02001910YS02001907 CONDUIT    103.10     0  03:00      0.49    0.06    0.75
  YS02001786YS02001788 CONDUIT    331.84     0  02:57      1.78    0.64    0.40
  YS02001915YS02001910 CONDUIT    103.08     0  03:00      0.44    0.05    0.54
  YS02001918YS02001915 CONDUIT     34.78     0  03:03      0.44    0.02    0.26
  YS02001923YS02001920 CONDUIT     31.95     0  03:02      0.46    0.01    0.14
  YS02001926YS02001923 CONDUIT     31.92     0  03:02      0.50    0.05    0.14
  YS02001929YS02001926 CONDUIT     31.94     0  03:01      0.53    0.02    0.13
  YS02001920YS02001918 CONDUIT     34.80     0  03:02      0.47    0.03    0.15
  YS02001629YS02163301 CONDUIT    113.25     0  03:21      0.14    0.14    1.00
  YS02001619YS02001622 CONDUIT     96.96     0  03:18      0.65    0.14    0.91
  YS02001622YS02001625 CONDUIT    133.30     0  04:55      0.25    0.07    0.96
  YS02001625YS02001629 CONDUIT    131.11     0  04:55      0.25    0.06    0.97
  YS02163301YS02001633 CONDUIT     91.56     0  03:22      0.12    0.09    1.00
  YS02163601YS02164001 CONDUIT    159.09     0  02:56      0.20    0.14    1.00
  YS02164001YS02001641 CONDUIT    160.43     0  03:00      0.20    0.22    1.00
  YS02001641YS02001644 CONDUIT    159.71     0  03:00      0.20    0.52    1.00
  YS02001647YS02001649 CONDUIT    256.10     0  03:21      0.33    0.14    1.00
  YS02006553YS02006556 CONDUIT    225.30     0  02:57      0.32    0.19    0.83
  YS02006556YS02006558 CONDUIT    225.31     0  02:57      0.31    0.18    0.86
  YSB6556YSB1171       CONDUIT     12.94     0  02:20      0.06    0.01    0.57
  YS02001907YS02006553 CONDUIT    225.36     0  02:57      0.27    0.27    0.94
  YS02006558YS02006561 CONDUIT    334.90     0  03:00      2.36    0.74    0.50
  YS02001633YS02163601 CONDUIT    160.66     0  03:01      0.20    0.17    1.00
  YS02001644YS02001647 CONDUIT    229.95     0  03:00      0.30    0.14    1.00
  YS02001745YS02001748 CONDUIT    136.63     0  04:08      1.41    0.05    0.47
  YS02001748YS02001751 CONDUIT    253.06     0  04:31      1.09    0.13    0.82
  YS02001751YS02001754 CONDUIT    110.89     0  03:31      0.96    0.05    0.99
  YS02001754YS02001757 CONDUIT    131.02     0  03:23      0.33    0.05    1.00
  YS02001882YS02001884 CONDUIT      3.95     0  02:10      0.06    0.00    0.47
  YS02001884YS02001887 CONDUIT     11.35     0  02:07      0.06    0.02    0.57
  YS02001890YS02001895 CONDUIT    124.68     0  02:48      0.29    0.06    0.54
  YS02001895YS02001898 CONDUIT    124.70     0  02:49      0.48    0.22    0.40
  YS02001898YS02001901 CONDUIT    124.81     0  02:48      0.34    0.08    0.48
  YS02001901YS02001904 CONDUIT    124.21     0  02:48      0.29    0.19    0.53
  YS02001904YS02001907 CONDUIT    124.50     0  02:49      0.22    0.04    0.69
  YS02001887YS02001890 CONDUIT    124.82     0  02:47      0.24    0.21    0.62
  YS02001652YS02001649 CONDUIT    162.32     0  03:19      0.32    0.08    1.00
  YS02001655YS02001652 CONDUIT    115.95     0  02:46      1.04    0.06    1.00
  YS02001658YS02001655 CONDUIT    205.84     0  04:49      1.26    0.09    0.82
  YS02001661YS02001658 CONDUIT    214.19     0  04:35      1.46    0.08    0.50
  YS02001664YS02001661 CONDUIT     88.76     0  02:48      1.13    0.03    0.24
  YSB1154YSB6556       CONDUIT     12.78     0  02:18      0.19    0.02    0.46
  YSB1174YSB1171       CONDUIT     11.78     0  02:11      0.05    0.02    0.58
  YSB1171HS02004479    CONDUIT     23.74     0  02:19      0.54    0.02    0.45
  HS02004881HS02006253 CONDUIT     38.85     0  02:18      1.66    0.01    0.25
  YS02001793JiankangQianchi CONDUIT    332.06     0  02:57     13.37    0.03    0.55
  YS02001757CaochengTiaoxuchi CONDUIT    555.88     0  03:01      1.21    0.24    0.89
  WSF200WS02003060     CONDUIT    514.40     0  02:47      1.79    0.11    0.32
  1                    CONDUIT    796.66     0  02:54      3.13    0.28    0.36
  2                    CONDUIT    134.19     0  02:40      5.26    0.32    0.39
  3                    CONDUIT    514.52     0  02:40      9.85    0.82    0.69
  4                    CONDUIT      0.00     0  00:00      0.00    0.00    0.00
  CC-Pump-1            PUMP       200.00     0  04:00              1.00
  CC-Pump-2            PUMP       200.00     0  02:30              1.00
  JK-Pump-1            PUMP       300.00     0  00:00              1.00
  JK-Pump-2            PUMP       300.00     0  03:30              1.00
  XR-Pump-1            PUMP        95.00     0  00:00              1.00
  XR-Pump-2            PUMP        95.00     0  00:00              1.00
  XR-Pump-3            PUMP        95.00     0  00:40              1.00
  XR-Pump-4            PUMP        95.00     0  00:00              1.00
  
  
  ***************************
  Flow Classification Summary
  ***************************
  
  -------------------------------------------------------------------------------------
                      Adjusted    ---------- Fraction of Time in Flow Class ---------- 
                       /Actual         Up    Down  Sub   Sup   Up    Down  Norm  Inlet 
  Conduit               Length    Dry  Dry   Dry   Crit  Crit  Crit  Crit  Ltd   Ctrl  
  -------------------------------------------------------------------------------------
  WS02003066WSF200        1.00   0.06  0.00  0.00  0.00  0.94  0.00  0.00  0.72  0.00
  WS02006287WS02006284    1.00   0.04  0.02  0.00  0.68  0.27  0.00  0.00  0.77  0.00
  WS02006284WS02006280    1.00   0.05  0.00  0.00  0.00  0.00  0.00  0.95  0.00  0.00
  WS02006280WS02006229    1.00   0.05  0.00  0.00  0.00  0.00  0.00  0.95  0.00  0.00
  WS02006229WS02006228    1.00   0.00  0.00  0.00  0.99  0.00  0.00  0.01  0.00  0.00
  WS02006256WS02006235    1.00   0.00  0.00  0.00  1.00  0.00  0.00  0.00  0.00  0.00
  WS02006253WS02006251    1.00   0.03  0.01  0.00  0.95  0.00  0.00  0.00  0.00  0.00
  WS02006252WS02006251    1.00   0.09  0.00  0.00  0.00  0.00  0.91  0.00  0.00  0.00
  WS02006251WS02006249    1.00   0.00  0.00  0.00  1.00  0.00  0.00  0.00  0.34  0.00
  WS02006249WS02006248    1.00   0.00  0.02  0.00  0.81  0.00  0.16  0.00  0.00  0.00
  WS02006248WS02006247    1.00   0.03  0.00  0.00  0.97  0.00  0.00  0.00  0.24  0.00
  WS02006247WS02006245    1.00   0.02  0.00  0.00  0.98  0.00  0.00  0.00  0.00  0.00
  WS02006245WS02006243    1.00   0.01  0.00  0.00  0.94  0.00  0.00  0.05  0.01  0.00
  WS02006243WS02006242    1.00   0.01  0.00  0.00  0.99  0.00  0.00  0.00  0.26  0.00
  WS02006242WS02006240    1.00   0.00  0.00  0.00  1.00  0.00  0.00  0.00  0.00  0.00
  WS02006240WS02006239    1.00   0.00  0.00  0.00  0.95  0.00  0.00  0.04  0.01  0.00
  WS02006239WS02006238    1.00   0.00  0.00  0.00  1.00  0.00  0.00  0.00  0.00  0.00
  WS02006238WS02006235    1.00   0.00  0.00  0.00  1.00  0.00  0.00  0.00  0.00  0.00
  WS02006235WS02006234    1.00   0.00  0.00  0.00  0.95  0.00  0.05  0.00  0.00  0.00
  WS02006234WS02006232    1.00   0.00  0.00  0.00  1.00  0.00  0.00  0.00  0.05  0.00
  WS02006232WS02006231    1.00   0.00  0.00  0.00  0.99  0.00  0.00  0.00  0.00  0.00
  WS02006231WS02006230    1.00   0.00  0.00  0.00  0.39  0.00  0.60  0.00  0.00  0.00
  WS02006230WS02006229    1.00   0.00  0.00  0.00  0.98  0.00  0.00  0.02  0.00  0.00
  WS02006228WS02006109    1.00   0.00  0.00  0.00  1.00  0.00  0.00  0.00  0.00  0.00
  WS02006116WS02004401    1.00   0.03  0.00  0.00  0.97  0.00  0.00  0.00  0.00  0.00
  WS02006115WS02006116    1.00   0.03  0.00  0.00  0.97  0.00  0.00  0.01  0.00  0.00
  WS02006113WS02006111    1.00   0.02  0.00  0.00  0.00  0.98  0.00  0.00  0.14  0.00
  WS02006112WS02006115    1.00   0.02  0.00  0.00  0.97  0.00  0.00  0.00  0.00  0.00
  WS02006111WS02006112    1.00   0.02  0.00  0.00  0.97  0.00  0.00  0.00  0.98  0.00
  WS02006110WS02006113    1.00   0.01  0.01  0.00  0.98  0.00  0.00  0.00  0.00  0.00
  WS02006109WS02006110    1.00   0.00  0.01  0.00  0.98  0.00  0.01  0.00  0.00  0.00
  WS02004411WS02004412    1.00   0.04  0.00  0.00  0.96  0.00  0.00  0.00  0.00  0.00
  WS02004401WS02004402    1.00   0.03  0.00  0.00  0.97  0.00  0.00  0.00  0.00  0.00
  WS02004413WS02003067    1.00   0.04  0.01  0.00  0.00  0.00  0.94  0.00  0.00  0.00
  WS02004412WS02004413    1.00   0.04  0.00  0.00  0.96  0.00  0.00  0.00  0.03  0.00
  WS02004410WS02004411    1.00   0.04  0.00  0.00  0.96  0.00  0.00  0.00  0.04  0.00
  WS02004409WS02004410    1.00   0.04  0.00  0.00  0.96  0.00  0.00  0.00  0.04  0.00
  WS02004407WS02004409    1.00   0.04  0.00  0.00  0.96  0.00  0.00  0.00  0.89  0.00
  WS02004406WS02004407    1.00   0.00  0.04  0.00  0.96  0.00  0.00  0.00  0.00  0.00
  WS02004405WS02004406    1.00   0.00  0.00  0.00  1.00  0.00  0.00  0.00  0.00  0.00
  WS02004404WS02004405    1.00   0.00  0.00  0.00  1.00  0.00  0.00  0.00  0.00  0.00
  WS02004403WS02004404    1.00   0.00  0.03  0.00  0.97  0.00  0.00  0.00  0.01  0.00
  WS02004402WS02004403    1.00   0.03  0.00  0.00  0.97  0.00  0.00  0.00  0.00  0.00
  WS02004139WS02001211    1.00   0.00  0.00  0.00  1.00  0.00  0.00  0.00  0.00  0.00
  WS02004138WS02004139    1.00   0.00  0.00  0.00  0.99  0.01  0.00  0.00  1.00  0.00
  WS02003067WS02003066    1.00   0.06  0.00  0.00  0.94  0.00  0.00  0.00  0.00  0.00
  WS02001213WS02003059    1.00   0.00  0.00  0.00  0.99  0.00  0.00  0.00  0.00  0.00
  WS02001212WS02001213    1.00   0.00  0.00  0.00  0.87  0.00  0.13  0.00  0.00  0.00
  WS02001211WS02001212    1.00   0.00  0.00  0.00  1.00  0.00  0.00  0.00  0.00  0.00
  WS02003072WS02003073    1.00   0.00  0.00  0.00  0.00  0.00  0.00  1.00  0.00  0.00
  WS02003069WS02003072    1.00   0.00  0.00  0.00  0.99  0.01  0.00  0.00  0.26  0.00
  WS02003060WS02003069    1.00   0.00  0.00  0.00  0.98  0.02  0.00  0.00  0.14  0.00
  WS02003059WS02003060    1.00   0.00  0.00  0.00  1.00  0.00  0.00  0.00  0.01  0.00
  HS02004901HS02004770    1.00   0.05  0.00  0.00  0.95  0.00  0.00  0.00  0.02  0.00
  HS02004876HS02004881    1.00   0.02  0.00  0.00  0.98  0.00  0.00  0.00  0.00  0.00
  HS02004870HS02004876    1.00   0.01  0.00  0.00  0.99  0.00  0.00  0.00  0.95  0.00
  HS02004842HS02004848    1.00   0.00  0.05  0.00  0.95  0.00  0.00  0.00  0.68  0.00
  HS02004837HS02004842    1.00   0.00  0.00  0.00  0.99  0.01  0.00  0.00  0.11  0.00
  HS02004830HS02004837    1.00   0.00  0.00  0.00  1.00  0.00  0.00  0.00  0.99  0.00
  HS02004824HS02004830    1.00   0.00  0.00  0.00  1.00  0.00  0.00  0.00  0.00  0.00
  HS02004817HS02004824    1.00   0.00  0.00  0.00  1.00  0.00  0.00  0.00  1.00  0.00
  HS02004770HS02004777    1.00   0.00  0.05  0.00  0.95  0.00  0.00  0.00  0.07  0.00
  HS02004799HS02004480    1.00   0.00  0.03  0.00  0.94  0.00  0.03  0.00  0.00  0.00
  HS02004792HS02004799    1.00   0.00  0.00  0.00  0.98  0.02  0.00  0.00  0.98  0.00
  HS02004788HS02004792    1.00   0.00  0.00  0.00  0.99  0.01  0.00  0.00  0.98  0.00
  HS02004785HS02004788    1.00   0.00  0.00  0.00  1.00  0.00  0.00  0.00  0.00  0.00
  HS02004777HS02004785    1.00   0.00  0.00  0.00  1.00  0.00  0.00  0.00  0.21  0.00
  HS02004480HS02004478    1.00   0.05  0.00  0.00  0.73  0.00  0.00  0.22  0.00  0.00
  HS02004479HS02004480    1.00   0.03  0.00  0.00  0.97  0.00  0.00  0.00  0.16  0.00
  HS02004862HS02004870    1.00   0.00  0.00  0.00  1.00  0.00  0.00  0.00  0.06  0.00
  HS02004848HS02004852    1.00   0.05  0.00  0.00  0.95  0.00  0.00  0.00  0.71  0.00
  HS02004856HS02004862    1.00   0.00  0.07  0.00  0.93  0.00  0.00  0.00  0.74  0.00
  HS02004852HS02004856    1.00   0.05  0.01  0.00  0.95  0.00  0.00  0.00  0.83  0.00
  HS02004802HS02004478    1.00   0.05  0.01  0.00  0.95  0.00  0.00  0.00  0.01  0.00
  HS02004478WS02006287    1.00   0.06  0.00  0.00  0.86  0.08  0.00  0.00  0.77  0.00
  HS02004817HS02004807    1.00   0.00  0.05  0.00  0.95  0.00  0.00  0.00  0.00  0.00
  HS02004807HS02004802    1.00   0.05  0.00  0.00  0.95  0.00  0.00  0.00  0.01  0.00
  YS02001759YS02001757    1.00   0.00  0.00  0.00  1.00  0.00  0.00  0.00  0.17  0.00
  YS02001762YS02001759    1.00   0.00  0.00  0.00  1.00  0.00  0.00  0.00  0.04  0.00
  YS02001765YS02001762    1.00   0.00  0.00  0.00  1.00  0.00  0.00  0.00  0.22  0.00
  YS02001770YS02001767    1.00   0.00  0.00  0.00  1.00  0.00  0.00  0.00  0.00  0.00
  YS02001774YS02001770    1.00   0.00  0.05  0.00  0.94  0.00  0.00  0.00  0.07  0.00
  YS02001779YS02001774    1.00   0.00  0.00  0.00  1.00  0.00  0.00  0.00  0.26  0.00
  YS02001649YS02001757    1.00   0.00  0.00  0.00  1.00  0.00  0.00  0.00  0.19  0.00
  YS02001767YS02001765    1.00   0.00  0.00  0.00  1.00  0.00  0.00  0.00  0.01  0.00
  YS02006561YS02001783    1.00   0.07  0.00  0.00  0.00  0.93  0.00  0.00  0.73  0.00
  YS02001783YS02001784    1.00   0.00  0.07  0.00  0.93  0.00  0.00  0.00  0.00  0.00
  YS02001784YS02001785    1.00   0.00  0.00  0.00  1.00  0.00  0.00  0.00  0.25  0.00
  YS02001788YS02001790    1.00   0.00  0.00  0.00  0.08  0.92  0.00  0.00  0.76  0.00
  YS02001790YS02001791    1.00   0.00  0.00  0.00  0.02  0.98  0.00  0.00  0.55  0.00
  YS02001791YS02001793    1.00   0.00  0.00  0.00  0.00  1.00  0.00  0.00  0.00  0.00
  YS02001910YS02001907    1.00   0.00  0.00  0.00  0.97  0.00  0.00  0.03  0.13  0.00
  YS02001786YS02001788    1.00   0.00  0.00  0.00  0.08  0.92  0.00  0.00  0.00  0.00
  YS02001915YS02001910    1.00   0.00  0.00  0.00  0.99  0.01  0.00  0.00  0.24  0.00
  YS02001918YS02001915    1.00   0.00  0.01  0.00  0.98  0.02  0.00  0.00  0.81  0.00
  YS02001923YS02001920    1.00   0.00  0.00  0.00  1.00  0.00  0.00  0.00  1.00  0.00
  YS02001926YS02001923    1.00   0.00  0.04  0.00  0.00  0.00  0.96  0.00  0.00  0.00
  YS02001929YS02001926    1.00   0.00  0.05  0.00  0.95  0.00  0.00  0.00  0.87  0.00
  YS02001920YS02001918    1.00   0.00  0.01  0.00  0.99  0.00  0.00  0.00  0.00  0.00
  YS02001629YS02163301    1.00   0.06  0.00  0.00  0.93  0.00  0.00  0.00  0.00  0.00
  YS02001619YS02001622    1.00   0.05  0.00  0.00  0.95  0.00  0.00  0.00  0.00  0.00
  YS02001622YS02001625    1.00   0.05  0.00  0.00  0.95  0.00  0.00  0.00  0.13  0.00
  YS02001625YS02001629    1.00   0.05  0.03  0.00  0.91  0.00  0.02  0.00  0.00  0.00
  YS02163301YS02001633    1.00   0.00  0.06  0.00  0.94  0.00  0.00  0.00  0.00  0.00
  YS02163601YS02164001    1.00   0.00  0.04  0.00  0.96  0.00  0.00  0.00  0.00  0.00
  YS02164001YS02001641    1.00   0.01  0.03  0.00  0.96  0.00  0.00  0.00  0.07  0.00
  YS02001641YS02001644    1.00   0.00  0.01  0.00  0.99  0.00  0.00  0.00  0.00  0.00
  YS02001647YS02001649    1.00   0.00  0.07  0.00  0.93  0.00  0.00  0.00  0.01  0.00
  YS02006553YS02006556    1.00   0.02  0.00  0.00  0.98  0.00  0.00  0.00  0.03  0.00
  YS02006556YS02006558    1.00   0.00  0.00  0.00  1.00  0.00  0.00  0.00  0.00  0.00
  YSB6556YSB1171          1.00   0.03  0.02  0.00  0.95  0.00  0.00  0.00  0.00  0.00
  YS02001907YS02006553    1.00   0.00  0.02  0.00  0.97  0.00  0.00  0.00  0.00  0.00
  YS02006558YS02006561    1.00   0.07  0.00  0.00  0.00  0.93  0.00  0.00  0.71  0.00
  YS02001633YS02163601    1.00   0.00  0.01  0.00  0.99  0.00  0.00  0.00  0.20  0.00
  YS02001644YS02001647    1.00   0.00  0.07  0.00  0.93  0.00  0.00  0.00  0.00  0.00
  YS02001745YS02001748    1.00   0.00  0.00  0.00  0.85  0.02  0.00  0.13  0.17  0.00
  YS02001748YS02001751    1.00   0.00  0.00  0.00  0.97  0.03  0.00  0.00  0.24  0.00
  YS02001751YS02001754    1.00   0.00  0.00  0.00  0.92  0.00  0.00  0.08  0.02  0.00
  YS02001754YS02001757    1.00   0.00  0.00  0.00  0.99  0.01  0.00  0.00  0.26  0.00
  YS02001882YS02001884    1.00   0.06  0.00  0.00  0.93  0.00  0.00  0.00  0.00  0.00
  YS02001884YS02001887    1.00   0.03  0.01  0.00  0.96  0.00  0.00  0.00  0.00  0.00
  YS02001890YS02001895    1.00   0.00  0.06  0.00  0.93  0.00  0.00  0.00  0.00  0.00
  YS02001895YS02001898    1.00   0.07  0.00  0.00  0.92  0.00  0.01  0.00  0.00  0.00
  YS02001898YS02001901    1.00   0.06  0.00  0.00  0.93  0.00  0.00  0.00  0.02  0.00
  YS02001901YS02001904    1.00   0.06  0.00  0.00  0.94  0.00  0.00  0.00  0.00  0.00
  YS02001904YS02001907    1.00   0.00  0.06  0.00  0.94  0.00  0.00  0.00  0.00  0.00
  YS02001887YS02001890    1.00   0.00  0.00  0.00  0.97  0.00  0.03  0.00  0.00  0.00
  YS02001652YS02001649    1.00   0.00  0.00  0.00  1.00  0.00  0.00  0.00  0.26  0.00
  YS02001655YS02001652    1.00   0.00  0.00  0.00  0.92  0.00  0.00  0.08  0.02  0.00
  YS02001658YS02001655    1.00   0.00  0.06  0.00  0.91  0.03  0.00  0.00  0.11  0.00
  YS02001661YS02001658    1.00   0.06  0.00  0.00  0.84  0.10  0.00  0.00  0.18  0.00
  YS02001664YS02001661    1.00   0.05  0.00  0.00  0.74  0.21  0.00  0.00  0.86  0.00
  YSB1154YSB6556          1.00   0.05  0.00  0.00  0.95  0.00  0.00  0.00  0.02  0.00
  YSB1174YSB1171          1.00   0.03  0.01  0.00  0.96  0.00  0.00  0.00  0.00  0.00
  YSB1171HS02004479       1.00   0.03  0.00  0.00  0.97  0.00  0.00  0.00  0.13  0.00
  HS02004881HS02006253    1.00   0.03  0.00  0.00  0.62  0.02  0.00  0.33  0.46  0.00
  YS02001793JiankangQianchi    1.00   0.00  0.00  0.00  0.17  0.83  0.00  0.00  0.20  0.00
  YS02001757CaochengTiaoxuchi    1.00   0.00  0.09  0.00  0.91  0.00  0.00  0.00  0.00  0.00
  WSF200WS02003060        1.00   0.00  0.06  0.00  0.73  0.21  0.00  0.00  0.39  0.00
  1                       1.00   0.00  0.00  0.00  0.00  1.00  0.00  0.00  0.40  0.00
  2                       1.00   0.81  0.00  0.00  0.00  0.19  0.00  0.00  0.05  0.00
  3                       1.00   0.17  0.00  0.00  0.00  0.83  0.00  0.00  0.28  0.00
  4                       1.00   1.00  0.00  0.00  0.00  0.00  0.00  0.00  0.00  0.00
  
  
  *************************
  Conduit Surcharge Summary
  *************************
  
  ----------------------------------------------------------------------------
                                                           Hours        Hours 
                         --------- Hours Full --------   Above Full   Capacity
  Conduit                Both Ends  Upstream  Dnstream   Normal Flow   Limited
  ----------------------------------------------------------------------------
  WS02006229WS02006228        0.69      0.87      0.69      3.38         0.69
  WS02006256WS02006235        5.72      5.72      7.56      3.80         0.01
  WS02006252WS02006251        0.55      0.55      1.25      1.07         0.01
  WS02006251WS02006249        0.01      0.01      0.01      0.55         0.01
  WS02006249WS02006248        0.01      0.01      0.01      3.09         0.01
  WS02006247WS02006245        0.01      0.01      0.01      3.71         0.01
  WS02006243WS02006242        0.01      0.01      0.34      0.01         0.01
  WS02006242WS02006240        0.10      0.10      0.56      1.22         0.01
  WS02006240WS02006239        0.12      0.12      0.14      0.07         0.01
  WS02006239WS02006238        0.45      0.45      0.55      0.16         0.07
  WS02006238WS02006235        0.43      0.43      0.82      0.01         0.01
  WS02006235WS02006234        0.13      0.13      0.32      5.74         0.01
  WS02006234WS02006232        0.17      0.17      0.90      0.01         0.01
  WS02006232WS02006231        0.01      0.01      0.90      0.01         0.01
  WS02006231WS02006230        0.01      0.01      0.01      5.73         0.01
  WS02006230WS02006229        1.65      2.75      1.65      5.83         1.65
  WS02006228WS02006109        0.78      1.26      0.78      4.80         0.78
  WS02006112WS02006115        0.01      0.01      0.20      0.01         0.01
  WS02006111WS02006112        0.01      0.01      3.66      0.01         0.01
  WS02006110WS02006113        0.01      0.01      1.07      0.01         0.01
  WS02006109WS02006110        0.01      0.01      1.26      0.01         0.01
  WS02004405WS02004406        0.01      0.01      0.01      0.11         0.01
  WS02004404WS02004405        0.01      0.01      0.01      5.61         0.01
  WS02003072WS02003073        0.01      0.01      0.01      4.94         0.01
  YS02001759YS02001757        5.16      5.16      5.31      0.01         0.01
  YS02001762YS02001759        5.07      5.07      5.16      0.01         0.01
  YS02001765YS02001762        4.88      4.88      5.07      0.01         0.01
  YS02001770YS02001767        4.52      4.54      4.58      0.01         0.95
  YS02001774YS02001770        4.37      4.37      5.02      0.01         0.01
  YS02001779YS02001774        2.00      2.00      5.02      0.01         0.01
  YS02001649YS02001757        5.11      5.11      5.31      0.01         0.01
  YS02001767YS02001765        4.58      4.58      4.88      0.01         0.02
  YS02001629YS02163301        4.31      4.31      4.43      0.01         0.01
  YS02001622YS02001625        0.01      0.01      3.58      0.01         0.01
  YS02001625YS02001629        0.01      0.01      3.58      0.01         0.01
  YS02163301YS02001633        4.43      4.43      4.92      0.01         0.01
  YS02163601YS02164001        4.89      4.89      5.10      0.01         0.01
  YS02164001YS02001641        4.89      4.89      4.97      0.01         0.01
  YS02001641YS02001644        4.96      4.97      4.98      0.01         0.49
  YS02001647YS02001649        3.50      3.50      5.11      0.01         0.01
  YS02001633YS02163601        4.78      4.78      5.10      0.01         0.01
  YS02001644YS02001647        3.50      3.50      4.98      0.01         0.01
  YS02001751YS02001754        0.01      0.01      2.53      0.01         0.01
  YS02001754YS02001757        3.47      3.47      5.31      0.01         0.01
  YS02001652YS02001649        3.76      3.76      5.11      0.01         0.01
  YS02001655YS02001652        0.01      0.01      3.21      0.01         0.01
  YS02001658YS02001655        0.01      0.01      0.01      0.01         0.01
  YS02001793JiankangQianchi        0.01      0.01      0.55      0.01         0.01
  YS02001757CaochengTiaoxuchi        0.01      0.01      5.31      0.01         0.01
  
  
  ***************
  Pumping Summary
  ***************
  
  ---------------------------------------------------------------------------------------------------------
                                                  Min       Avg       Max     Total     Power    % Time Off
                        Percent   Number of      Flow      Flow      Flow    Volume     Usage    Pump Curve
  Pump                 Utilized   Start-Ups       LPS       LPS       LPS  10^6 ltr     Kw-hr    Low   High
  ---------------------------------------------------------------------------------------------------------
  CC-Pump-1               45.12           6      0.00    120.29    200.00     1.497      4.31    0.0   15.1
  CC-Pump-2               55.75           6      0.00    125.00    200.00     1.921      5.56    0.0   12.2
  JK-Pump-1               93.61           5      0.00    123.41    300.00     2.400     44.70    0.0    0.0
  JK-Pump-2               85.10           5      0.00    122.58    300.00     2.126     40.28    0.0    0.0
  XR-Pump-1               91.48           7      0.00     74.49     95.00     1.824     15.35    0.0    0.0
  XR-Pump-2               91.48           7      0.00     64.07     95.00     1.653     15.97    0.0    0.0
  XR-Pump-3               80.84           6      0.00     70.72     95.00     1.624     15.31    0.0    0.0
  XR-Pump-4               76.59           6      0.00     68.11     95.00     1.511     15.92    0.0    0.0
  

  Analysis begun on:  Fri Dec 24 16:01:12 2021
  Analysis ended on:  Fri Dec 24 16:01:16 2021
  Total elapsed time: 00:00:04