
  EPA STORM WATER MANAGEMENT MODEL - VERSION 5.1 (Build 5.3.0.dev0)
  --------------------------------------------------------------

  WARNING 04: minimum elevation drop used for Conduit WS02004404WS02004405
  WARNING 03: negative offset ignored for Link YS02001904YS02001907
  
  *********************************************************
  NOTE: The summary statistics displayed in this report are
  based on results found at every computational time step,  
  not just on results from each reporting time step.
  *********************************************************
  
  ****************
  Analysis Options
  ****************
  Flow Units ............... LPS
  Process Models:
    Rainfall/Runoff ........ YES
    RDII ................... NO
    Snowmelt ............... NO
    Groundwater ............ NO
    Flow Routing ........... YES
    Ponding Allowed ........ NO
    Water Quality .......... NO
  Infiltration Method ...... HORTON
  Flow Routing Method ...... DYNWAVE
  Surcharge Method ......... EXTRAN
  Starting Date ............ 08/28/2015 08:00:00
  Ending Date .............. 08/28/2015 15:50:00
  Antecedent Dry Days ...... 8.0
  Report Time Step ......... 00:01:00
  Wet Time Step ............ 00:01:00
  Dry Time Step ............ 00:01:00
  Routing Time Step ........ 5.00 sec
  Variable Time Step ....... YES
  Maximum Trials ........... 8
  Number of Threads ........ 4
  Head Tolerance ........... 0.001500 m
  
  
  **************************        Volume         Depth
  Runoff Quantity Continuity     hectare-m            mm
  **************************     ---------       -------
  Total Precipitation ......         2.984         6.533
  Evaporation Loss .........         0.000         0.000
  Infiltration Loss ........         0.753         1.648
  Surface Runoff ...........         1.324         2.899
  Final Storage ............         0.907         1.987
  Continuity Error (%) .....        -0.018
  
  
  **************************        Volume        Volume
  Flow Routing Continuity        hectare-m      10^6 ltr
  **************************     ---------     ---------
  Dry Weather Inflow .......         0.616         6.165
  Wet Weather Inflow .......         1.323        13.234
  Groundwater Inflow .......         0.000         0.000
  RDII Inflow ..............         0.000         0.000
  External Inflow ..........         0.102         1.024
  External Outflow .........         1.823        18.226
  Flooding Loss ............         0.078         0.781
  Evaporation Loss .........         0.000         0.000
  Exfiltration Loss ........         0.000         0.000
  Initial Stored Volume ....         0.076         0.761
  Final Stored Volume ......         0.368         3.675
  Continuity Error (%) .....        -7.081
  
  
  *************************
  Highest Continuity Errors
  *************************
  Node JK-storage (-35.77%)
  Node HS02004842 (26.48%)
  Node YS02001884 (20.89%)
  Node YS02001774 (11.75%)
  Node YSB1171 (6.19%)
  
  
  ***************************
  Time-Step Critical Elements
  ***************************
  Link WS02006252WS02006251 (54.32%)
  Link 3 (35.87%)
  Link WS02006238WS02006235 (3.67%)
  Link WS02006280WS02006229 (1.87%)
  
  
  ********************************
  Highest Flow Instability Indexes
  ********************************
  Link WS02006113WS02006111 (36)
  Link WS02006111WS02006112 (25)
  Link YS02006558YS02006561 (16)
  Link YS02001629YS02163301 (8)
  Link YS02001644YS02001647 (7)
  
  
  *************************
  Routing Time Step Summary
  *************************
  Minimum Time Step           :     0.50 sec
  Average Time Step           :     0.85 sec
  Maximum Time Step           :     5.00 sec
  Percent in Steady State     :    -0.00
  Average Iterations per Step :     2.83
  Percent Not Converging      :    10.36
  
  
  ***************************
  Subcatchment Runoff Summary
  ***************************
  
  ------------------------------------------------------------------------------------------------------------------------------
                            Total      Total      Total      Total     Imperv       Perv      Total       Total     Peak  Runoff
                           Precip      Runon       Evap      Infil     Runoff     Runoff     Runoff      Runoff   Runoff   Coeff
  Subcatchment                 mm         mm         mm         mm         mm         mm         mm    10^6 ltr      LPS
  ------------------------------------------------------------------------------------------------------------------------------
  sub0                       6.53       0.00       0.00       0.46       4.81       0.00       4.81        0.00     1.70   0.736
  sub1                       6.53       0.00       0.00       0.72       4.56       0.00       4.56        0.03     8.92   0.698
  sub2                       6.53       0.00       0.00       2.42       3.21       0.00       3.21        0.03     7.90   0.491
  sub3                       6.53       0.00       0.00       2.42       3.17       0.00       3.17        0.07    16.25   0.486
  sub4                       6.53       0.00       0.00       0.72       4.42       0.00       4.42        0.09    18.23   0.676
  sub5                       6.53       0.00       0.00       0.46       4.76       0.00       4.76        0.05    15.87   0.729
  sub7                       6.53       0.00       0.00       0.59       4.69       0.00       4.69        0.02     5.60   0.718
  sub8                       6.53       0.00       0.00       0.59       4.68       0.00       4.68        0.03     9.88   0.717
  sub9                       6.53       0.00       0.00       0.59       4.68       0.00       4.68        0.02     7.33   0.716
  sub10                      6.53       0.00       0.00       0.52       4.72       0.00       4.72        0.05    15.85   0.722
  sub11                      6.53       0.00       0.00       0.52       4.74       0.00       4.74        0.06    18.60   0.725
  sub12                      6.53       0.00       0.00       0.85       4.49       0.00       4.49        0.04    15.74   0.688
  sub14                      6.53       0.00       0.00       0.59       4.68       0.00       4.68        0.04    14.32   0.716
  sub15                      6.53       0.00       0.00       1.96       3.59       0.00       3.59        0.06    19.42   0.550
  sub16                      6.53       0.00       0.00       2.16       3.46       0.00       3.46        0.04    13.85   0.529
  sub17                      6.53       0.00       0.00       2.09       3.51       0.00       3.51        0.03    11.18   0.537
  sub22                      6.53       0.00       0.00       2.81       2.94       0.00       2.94        0.19    63.64   0.449
  sub23                      6.53       0.00       0.00       2.42       3.25       0.00       3.25        0.15    54.16   0.497
  sub60                      6.53       0.00       0.00       0.78       3.24       0.00       3.24        0.98    93.37   0.497
  sub61                      6.53       0.00       0.00       1.11       3.44       0.00       3.44        1.06   116.86   0.527
  sub62                      6.53       0.00       0.00       0.52       3.70       0.00       3.70        1.14   119.50   0.567
  sub63                      6.53       0.00       0.00       1.89       3.06       0.00       3.06        0.93   108.99   0.468
  sub64                      6.53       0.00       0.00       0.98       3.10       0.00       3.10        0.94    88.71   0.475
  sub65                      6.53       0.00       0.00       0.85       3.14       0.00       3.14        0.97    90.05   0.481
  sub66                      6.53       0.00       0.00       1.89       2.70       0.00       2.70        0.83    81.23   0.414
  sub67                      6.53       0.00       0.00       0.52       4.05       0.00       4.05        1.25   153.14   0.619
  sub68                      6.53       0.00       0.00       0.91       3.66       0.00       3.66        1.13   129.14   0.560
  sub69                      6.53       0.00       0.00       0.98       3.92       0.00       3.92        0.92   128.07   0.601
  sub70                      6.53       4.01       0.00       3.58       4.89       0.00       4.89        1.12   104.96   0.464
  sub71                      6.53       0.00       0.00       0.52       3.55       0.00       3.55        0.84    83.47   0.543
  sub72                      6.53       0.00       0.00       0.46       2.55       0.00       2.55        0.52    39.79   0.390
  sub73                      6.53       4.76       0.00       3.84       5.03       0.00       5.03        1.18    90.59   0.445
  sub74                      6.53       0.00       0.00       4.90       1.18       0.00       1.18        0.47    71.42   0.181
  
  
  ******************
  Node Depth Summary
  ******************
  
  ---------------------------------------------------------------------------------
                                 Average  Maximum  Maximum  Time of Max    Reported
                                   Depth    Depth      HGL   Occurrence   Max Depth
  Node                 Type       Meters   Meters   Meters  days hr:min      Meters
  ---------------------------------------------------------------------------------
  WS02001211           JUNCTION     0.65     0.79     5.63     0  02:58        0.79
  WS02001212           JUNCTION     0.38     0.50     5.57     0  02:57        0.50
  WS02001213           JUNCTION     0.61     0.75     5.51     0  02:56        0.75
  WS02003069           JUNCTION     0.44     0.57     5.15     0  02:55        0.57
  WS02003072           JUNCTION     0.51     0.63     5.00     0  02:56        0.63
  WS02003073           JUNCTION     0.30     0.39     4.45     0  02:56        0.39
  WS02003060           JUNCTION     0.39     0.50     5.44     0  02:54        0.50
  WS02003066           JUNCTION     0.24     0.30     5.85     0  02:32        0.30
  WS02003059           JUNCTION     0.67     0.80     5.49     0  02:56        0.80
  WS02003067           JUNCTION     0.59     0.71     6.03     0  02:32        0.70
  WS02004401           JUNCTION     0.69     0.87     6.87     0  02:28        0.87
  WS02004402           JUNCTION     0.72     0.89     6.85     0  02:28        0.89
  WS02004403           JUNCTION     0.74     0.90     6.83     0  02:29        0.90
  WS02004404           JUNCTION     0.82     0.98     6.83     0  02:29        0.98
  WS02004406           JUNCTION     0.82     0.97     6.80     0  02:29        0.97
  WS02004409           JUNCTION     0.51     0.68     6.45     0  02:31        0.68
  WS02004410           JUNCTION     0.53     0.69     6.41     0  02:32        0.69
  WS02004411           JUNCTION     0.55     0.70     6.38     0  02:32        0.70
  WS02004412           JUNCTION     0.56     0.70     6.34     0  02:32        0.70
  WS02004413           JUNCTION     0.72     0.86     6.33     0  02:32        0.86
  WS02004405           JUNCTION     0.81     0.97     6.82     0  02:29        0.97
  WS02006109           JUNCTION     0.78     1.02     7.64     0  02:23        1.01
  WS02006110           JUNCTION     0.77     0.95     7.54     0  02:23        0.95
  WS02006111           JUNCTION     0.23     0.30     7.00     0  02:24        0.30
  WS02006112           JUNCTION     0.86     1.07     6.95     0  02:29        1.06
  WS02006113           JUNCTION     0.35     0.47     7.36     0  02:23        0.47
  WS02006115           JUNCTION     0.59     0.77     6.91     0  02:29        0.77
  WS02006116           JUNCTION     0.67     0.85     6.89     0  02:28        0.84
  WS02006230           JUNCTION     0.76     1.08     7.82     0  02:23        1.08
  WS02006231           JUNCTION     0.51     0.75     7.87     0  02:23        0.74
  WS02006232           JUNCTION     0.65     0.89     7.93     0  02:22        0.86
  WS02006234           JUNCTION     0.58     0.84     7.99     0  02:23        0.79
  WS02006235           JUNCTION     0.61     0.85     8.02     0  02:23        0.82
  WS02006238           JUNCTION     0.64     0.88     8.02     0  02:22        0.84
  WS02006240           JUNCTION     0.54     0.80     8.09     0  02:22        0.75
  WS02006242           JUNCTION     0.60     0.85     8.11     0  02:22        0.82
  WS02006243           JUNCTION     0.48     0.71     8.13     0  02:23        0.71
  WS02006245           JUNCTION     0.46     0.68     8.17     0  02:40        0.68
  WS02006247           JUNCTION     0.48     1.47     8.97     0  02:23        0.69
  WS02006248           JUNCTION     0.42     0.65     8.24     0  02:23        0.62
  WS02006249           JUNCTION     0.45     0.63     8.22     0  02:40        0.62
  WS02006239           JUNCTION     0.60     0.85     8.06     0  02:22        0.81
  WS02006251           JUNCTION     0.45     0.65     8.32     0  02:40        0.65
  WS02006252           JUNCTION     0.40     0.59     8.83     0  05:20        0.58
  WS02006253           JUNCTION     0.47     0.68     8.32     0  02:40        0.68
  WS02006256           JUNCTION     1.05     1.21     8.15     0  02:41        1.21
  WS02004138           JUNCTION     0.15     0.19     7.44     0  02:52        0.19
  WS02004407           JUNCTION     0.23     0.30     6.61     0  02:29        0.30
  WS02006228           JUNCTION     0.78     1.07     7.73     0  02:23        1.05
  WS02006229           JUNCTION     0.76     1.08     7.77     0  02:23        1.06
  WS02006280           JUNCTION     0.06     0.16     8.43     0  02:17        0.16
  WS02006284           JUNCTION     0.35     0.50     8.90     0  02:16        0.50
  WS02006287           JUNCTION     0.08     0.23     9.19     0  02:16        0.23
  WSF200               JUNCTION     0.23     0.31     5.54     0  02:46        0.31
  HS02004901           JUNCTION     0.11     0.25    10.07     0  02:14        0.25
  HS02004881           JUNCTION     0.01     0.03     9.06     0  02:16        0.03
  HS02004876           JUNCTION     0.04     0.11     9.14     0  02:13        0.11
  HS02004870           JUNCTION     0.01     0.05     9.33     0  02:17        0.05
  HS02004862           JUNCTION     0.01     0.05     9.44     0  02:17        0.05
  HS02004856           JUNCTION     0.07     0.11     9.53     0  02:17        0.11
  HS02004852           JUNCTION     0.01     0.03     9.54     0  02:18        0.03
  HS02004848           JUNCTION     0.01     0.03     9.63     0  02:16        0.03
  HS02004842           JUNCTION     0.33     0.36     9.63     0  02:16        0.36
  HS02004837           JUNCTION     0.03     0.05     9.63     0  02:16        0.05
  HS02004830           JUNCTION     0.04     0.07     9.53     0  02:17        0.07
  HS02004824           JUNCTION     0.02     0.04     9.45     0  02:20        0.04
  HS02004817           JUNCTION     0.43     0.54     9.39     0  02:17        0.54
  HS02004807           JUNCTION     0.11     0.22     9.39     0  02:17        0.22
  HS02004802           JUNCTION     0.15     0.25     9.38     0  02:17        0.25
  HS02004799           JUNCTION     0.10     0.28     9.49     0  02:15        0.28
  HS02004792           JUNCTION     0.03     0.11     9.63     0  02:14        0.11
  HS02004788           JUNCTION     0.02     0.08     9.98     0  02:15        0.08
  HS02004785           JUNCTION     0.04     0.15    10.05     0  02:14        0.15
  HS02004777           JUNCTION     0.14     0.27    10.07     0  02:14        0.27
  HS02004770           JUNCTION     0.11     0.24    10.07     0  02:14        0.24
  HS02004480           JUNCTION     0.07     0.22     9.46     0  02:15        0.22
  HS02004479           JUNCTION     0.10     0.26     9.46     0  02:15        0.26
  HS02004478           JUNCTION     0.05     0.14     9.37     0  02:16        0.14
  YS02001745           JUNCTION     0.12     0.35     7.87     0  05:13        0.33
  YS02001748           JUNCTION     0.47     0.74     7.81     0  05:09        0.73
  YS02001751           JUNCTION     0.65     0.98     7.86     0  05:14        0.96
  YS02001754           JUNCTION     0.90     1.27     7.88     0  05:14        1.21
  YS02001762           JUNCTION     1.10     1.59     7.99     0  05:15        1.54
  YS02001765           JUNCTION     1.05     1.59     8.04     0  05:15        1.56
  YS02001767           JUNCTION     1.01     1.61     8.10     0  04:05        1.59
  YS02001770           JUNCTION     1.01     1.70     8.20     0  04:16        1.68
  YS02001774           JUNCTION     1.08     1.81     8.23     0  04:05        1.78
  YS02001779           JUNCTION     0.83     1.57     8.25     0  04:05        1.53
  YS02001882           JUNCTION     0.31     0.51     7.22     0  02:48        0.51
  YS02001884           JUNCTION     0.40     0.60     7.22     0  02:47        0.60
  YS02001759           JUNCTION     1.13     1.57     7.93     0  05:14        1.49
  YS02001887           JUNCTION     0.48     0.68     7.22     0  02:47        0.68
  YS02001890           JUNCTION     0.51     0.71     7.22     0  02:49        0.71
  YS02001898           JUNCTION     0.28     0.47     7.20     0  02:53        0.47
  YS02001901           JUNCTION     0.40     0.59     7.20     0  02:56        0.59
  YS02001904           JUNCTION     0.38     0.57     7.20     0  02:53        0.57
  YS02001907           JUNCTION     0.71     0.91     7.20     0  02:53        0.91
  YS02001910           JUNCTION     0.50     0.70     7.20     0  02:54        0.69
  YS02001915           JUNCTION     0.30     0.48     7.20     0  02:53        0.48
  YS02001918           JUNCTION     0.09     0.13     7.20     0  02:54        0.13
  YS02001619           JUNCTION     0.61     0.88     7.81     0  05:11        0.88
  YS02001629           JUNCTION     0.96     1.30     7.84     0  05:10        1.29
  YS02001641           JUNCTION     1.07     1.43     7.87     0  04:52        1.41
  YS02001644           JUNCTION     1.07     1.44     7.87     0  04:52        1.41
  YS02001652           JUNCTION     0.91     1.30     7.89     0  05:03        1.26
  YS02001655           JUNCTION     0.68     1.09     7.94     0  05:03        1.03
  YS02001920           JUNCTION     0.18     0.23     7.23     0  03:02        0.23
  YS02001923           JUNCTION     0.07     0.09     7.35     0  03:01        0.09
  YS02001926           JUNCTION     0.15     0.19     7.63     0  03:01        0.19
  YS02001929           JUNCTION     0.07     0.10     7.79     0  03:01        0.10
  YS02001658           JUNCTION     0.41     0.67     7.81     0  05:18        0.67
  YS02001661           JUNCTION     0.21     0.42     7.82     0  05:11        0.42
  YS02001664           JUNCTION     0.07     0.13     8.05     0  02:43        0.13
  YS02001622           JUNCTION     0.63     0.90     7.80     0  05:11        0.89
  YS02001633           JUNCTION     1.05     1.40     7.85     0  05:13        1.38
  YS02001649           JUNCTION     1.11     1.47     7.86     0  05:14        1.43
  YS02001757           JUNCTION     1.23     1.62     7.88     0  05:14        1.56
  YS02001895           JUNCTION     0.28     0.46     7.21     0  02:54        0.46
  YS02001625           JUNCTION     0.91     1.20     7.80     0  05:14        1.19
  YS02163301           JUNCTION     0.99     1.33     7.85     0  05:11        1.32
  YS02163601           JUNCTION     1.11     1.46     7.86     0  04:52        1.44
  YS02164001           JUNCTION     1.05     1.41     7.87     0  04:52        1.38
  YS02001647           JUNCTION     0.90     1.26     7.87     0  04:52        1.23
  YSB1154              JUNCTION     0.24     0.40     9.46     0  02:15        0.40
  YSB6556              JUNCTION     0.14     0.29     9.46     0  02:15        0.29
  YSB1174              JUNCTION     0.19     0.35     9.46     0  02:15        0.35
  YSB1171              JUNCTION     0.39     0.56     9.46     0  02:15        0.56
  YS02006553           JUNCTION     0.71     0.92     7.20     0  02:52        0.92
  YS02006561           JUNCTION     0.15     0.25     6.91     0  02:51        0.25
  YS02006556           JUNCTION     0.68     0.88     7.20     0  02:52        0.88
  YS02006558           JUNCTION     0.73     0.93     7.19     0  02:52        0.93
  YS02001783           JUNCTION     0.27     0.45     6.59     0  02:52        0.45
  YS02001784           JUNCTION     0.30     0.48     6.54     0  02:52        0.48
  YS02001786           JUNCTION     0.25     0.40     6.43     0  02:52        0.40
  YS02001788           JUNCTION     0.19     0.31     6.28     0  02:52        0.31
  YS02001790           JUNCTION     0.23     0.37     6.02     0  02:53        0.37
  YS02001791           JUNCTION     0.15     0.24     5.71     0  03:00        0.24
  YS02001793           JUNCTION     0.09     0.16     4.99     0  02:53        0.16
  WS02004139           JUNCTION     0.59     0.74     5.65     0  02:57        0.74
  WSC                  OUTFALL      0.30     0.39     1.06     0  02:56        0.39
  3                    OUTFALL      0.09     0.21     6.21     0  02:41        0.21
  4                    OUTFALL      0.03     0.13     7.13     0  02:40        0.13
  5                    OUTFALL      0.00     0.00     5.00     0  00:00        0.00
  JK-storage           STORAGE      0.08     3.00     3.80     0  00:00        2.70
  CC-storage           STORAGE      0.46     0.76     7.76     0  05:12        0.76
  XR-storage           STORAGE      7.31     7.72     5.72     0  02:45        7.72
  
  
  *******************
  Node Inflow Summary
  *******************
  
  -------------------------------------------------------------------------------------------------
                                  Maximum  Maximum                  Lateral       Total        Flow
                                  Lateral    Total  Time of Max      Inflow      Inflow     Balance
                                   Inflow   Inflow   Occurrence      Volume      Volume       Error
  Node                 Type           LPS      LPS  days hr:min    10^6 ltr    10^6 ltr     Percent
  -------------------------------------------------------------------------------------------------
  WS02001211           JUNCTION      7.35   388.08     0  03:03       0.207        6.36       0.470
  WS02001212           JUNCTION      0.00   388.50     0  03:03           0        6.33       0.265
  WS02001213           JUNCTION      0.00   388.90     0  03:06           0        6.32       0.348
  WS02003069           JUNCTION      0.32   904.37     0  02:55     0.00902        14.4       0.202
  WS02003072           JUNCTION      0.00   904.23     0  02:55           0        14.3       0.251
  WS02003073           JUNCTION      1.82   906.03     0  02:56      0.0514        14.3       0.282
  WS02003060           JUNCTION     16.53   904.17     0  02:54       0.466        14.4       0.192
  WS02003066           JUNCTION      0.00   549.45     0  02:32           0        7.66       0.063
  WS02003059           JUNCTION      0.00   389.55     0  03:02           0         6.3       0.561
  WS02003067           JUNCTION      0.00   549.27     0  02:32           0        7.67       0.129
  WS02004401           JUNCTION      0.00   558.86     0  02:27           0        7.91       0.280
  WS02004402           JUNCTION      0.00   557.17     0  02:27           0        7.89       0.263
  WS02004403           JUNCTION      0.00   556.64     0  02:29           0        7.87       0.239
  WS02004404           JUNCTION      0.16   556.43     0  02:29     0.00457        7.85       0.180
  WS02004406           JUNCTION      0.00   556.64     0  02:29           0        7.82       0.438
  WS02004409           JUNCTION      0.00   555.96     0  02:29           0        7.78       0.228
  WS02004410           JUNCTION      0.00   552.56     0  02:31           0        7.76       0.256
  WS02004411           JUNCTION      0.00   550.80     0  02:31           0        7.74       0.262
  WS02004412           JUNCTION      0.00   549.90     0  02:32           0        7.72       0.282
  WS02004413           JUNCTION      0.00   549.54     0  02:32           0         7.7       0.413
  WS02004405           JUNCTION      0.04   556.47     0  02:29     0.00107        7.84       0.268
  WS02006109           JUNCTION      1.23   577.59     0  02:23      0.0347           8       0.273
  WS02006110           JUNCTION      0.00   577.66     0  02:23           0        7.98       0.247
  WS02006111           JUNCTION      0.00   597.50     0  02:23           0        7.95       0.053
  WS02006112           JUNCTION     11.18   588.93     0  02:24      0.0301        7.98       0.372
  WS02006113           JUNCTION      0.00   580.77     0  02:23           0        7.96       0.125
  WS02006115           JUNCTION      0.00   588.20     0  02:24           0        7.95       0.263
  WS02006116           JUNCTION      0.00   570.87     0  02:24           0        7.93       0.249
  WS02006230           JUNCTION     10.28   397.27     0  05:26        0.29        7.01       0.194
  WS02006231           JUNCTION      0.00   387.85     0  05:26           0        6.73       0.152
  WS02006232           JUNCTION      0.00   387.80     0  05:25           0        6.74       0.236
  WS02006234           JUNCTION      0.00   389.13     0  05:25           0        6.75       0.117
  WS02006235           JUNCTION      0.00   389.01     0  05:25           0        6.79       0.152
  WS02006238           JUNCTION      0.00   328.11     0  05:20           0         4.9       0.148
  WS02006240           JUNCTION      0.00   331.87     0  05:20           0        4.89       0.236
  WS02006242           JUNCTION      0.00   339.68     0  02:21           0        4.89       0.291
  WS02006243           JUNCTION      0.00   355.42     0  02:20           0        4.89       0.039
  WS02006245           JUNCTION      0.00   366.35     0  02:20           0         4.9       0.216
  WS02006247           JUNCTION      0.00   374.50     0  02:20           0        4.91       0.152
  WS02006248           JUNCTION      0.00   380.05     0  02:20           0        4.91       0.091
  WS02006249           JUNCTION      0.00   438.27     0  02:20           0        5.45       0.179
  WS02006239           JUNCTION      0.00   329.96     0  05:20           0        4.89       0.226
  WS02006251           JUNCTION      0.08   443.47     0  02:20     0.00217        5.49       0.165
  WS02006252           JUNCTION      0.00   400.00     0  05:20           0        5.29       0.008
  WS02006253           JUNCTION      1.70    54.63     0  02:17     0.00389       0.194       1.931
  WS02006256           JUNCTION      0.00   600.00     0  02:40           0        5.31       0.054
  WS02004138           JUNCTION      0.00   380.00     0  02:50           0        6.18       0.072
  WS02004407           JUNCTION      0.00   556.19     0  02:29           0        7.78       0.101
  WS02006228           JUNCTION      0.00   576.35     0  02:23           0        7.99       0.186
  WS02006229           JUNCTION      0.00   579.04     0  02:23           0           8       0.163
  WS02006280           JUNCTION      0.00   252.64     0  02:17           0        1.01       0.007
  WS02006284           JUNCTION      0.10   252.63     0  02:16      0.0027        1.01       0.107
  WS02006287           JUNCTION      0.00   252.53     0  02:16           0        1.01       0.072
  WSF200               JUNCTION      0.00   549.52     0  02:33           0        7.65       0.064
  HS02004901           JUNCTION     13.85    13.85     0  02:09      0.0362      0.0363       5.082
  HS02004881           JUNCTION      5.60    48.65     0  02:16      0.0158       0.167       0.219
  HS02004876           JUNCTION      8.92    43.39     0  02:16      0.0303       0.152       0.350
  HS02004870           JUNCTION      9.88    34.64     0  02:16      0.0299       0.122       0.087
  HS02004862           JUNCTION      8.10    25.40     0  02:17      0.0355      0.0919       0.183
  HS02004856           JUNCTION      7.33    17.37     0  02:16      0.0225      0.0578       2.557
  HS02004852           JUNCTION      0.00    10.50     0  02:16           0      0.0353       0.146
  HS02004848           JUNCTION     16.25    16.25     0  02:19      0.0714      0.0714       0.061
  HS02004842           JUNCTION      0.00     6.34     0  02:29           0      0.0491      36.018
  HS02004837           JUNCTION     22.20    27.47     0  02:15       0.231       0.267       0.305
  HS02004830           JUNCTION      0.15    27.60     0  02:16     0.00423       0.258       0.481
  HS02004824           JUNCTION     18.28    45.65     0  02:19      0.0935        0.35       0.154
  HS02004817           JUNCTION      0.60    46.25     0  02:20      0.0169       0.366       4.768
  HS02004807           JUNCTION     18.60    63.20     0  02:18       0.055       0.404       1.056
  HS02004802           JUNCTION      0.00    63.61     0  02:19           0         0.4       1.026
  HS02004799           JUNCTION     14.32   161.54     0  02:14      0.0445       0.531       0.430
  HS02004792           JUNCTION     63.92   147.50     0  02:14       0.193       0.487       0.084
  HS02004788           JUNCTION     21.09    85.80     0  02:14       0.109       0.295       0.132
  HS02004785           JUNCTION      0.15    65.07     0  02:14     0.00423       0.188       0.258
  HS02004777           JUNCTION      0.03    65.42     0  02:13    0.000846       0.188       2.825
  HS02004770           JUNCTION     54.16    66.68     0  02:11       0.155       0.189       1.662
  HS02004480           JUNCTION      0.00   190.53     0  02:15           0       0.621       0.120
  HS02004479           JUNCTION      0.00    29.57     0  02:16           0       0.103       0.716
  HS02004478           JUNCTION      0.00   252.51     0  02:16           0        1.01       0.061
  YS02001745           JUNCTION     93.38   156.87     0  05:13       0.983        1.04       0.133
  YS02001748           JUNCTION      0.04   191.38     0  05:21     0.00127        1.08       0.365
  YS02001751           JUNCTION      0.01   179.51     0  05:14     0.00031        1.03       1.165
  YS02001754           JUNCTION      0.26   151.44     0  03:31     0.00733       0.983       1.869
  YS02001762           JUNCTION      0.00   131.30     0  03:01           0        1.09       1.878
  YS02001765           JUNCTION      0.00   135.36     0  02:33           0        1.09       2.086
  YS02001767           JUNCTION      0.54   136.23     0  02:41      0.0151        1.11       2.905
  YS02001770           JUNCTION    119.65   145.12     0  03:02        1.14        1.23       2.083
  YS02001774           JUNCTION      0.00    51.39     0  04:01           0       0.202      13.312
  YS02001779           JUNCTION      0.01    51.48     0  04:01    0.000141      0.0922       8.622
  YS02001882           JUNCTION      0.00     4.84     0  02:06           0     0.00609      40.490
  YS02001884           JUNCTION      0.00    13.78     0  02:05           0      0.0241      26.402
  YS02001759           JUNCTION    116.90   246.36     0  02:46        1.06        2.12       1.062
  YS02001887           JUNCTION    153.59   153.84     0  02:39        1.26        1.27       0.580
  YS02001890           JUNCTION      0.00   153.13     0  02:44           0        1.25       0.648
  YS02001898           JUNCTION      0.00   152.46     0  02:44           0        1.23       0.190
  YS02001901           JUNCTION      0.00   152.31     0  02:45           0        1.23       0.464
  YS02001904           JUNCTION      0.00   152.11     0  02:47           0        1.23       0.431
  YS02001907           JUNCTION      0.00   277.94     0  03:01           0        2.65       0.849
  YS02001910           JUNCTION      0.00   128.14     0  02:59           0        1.43       0.731
  YS02001915           JUNCTION     83.49   126.89     0  03:02       0.838        1.43       0.333
  YS02001918           JUNCTION      0.00    43.01     0  03:03           0       0.597       0.207
  YS02001619           JUNCTION     81.23    81.23     0  02:56       0.828       0.833       0.633
  YS02001629           JUNCTION      0.00   151.03     0  04:55           0       0.846       1.977
  YS02001641           JUNCTION      0.00   175.38     0  02:52           0        1.67       1.183
  YS02001644           JUNCTION     88.75   265.51     0  02:52       0.944        2.59       0.955
  YS02001652           JUNCTION      0.00   195.71     0  03:27           0       0.931       1.647
  YS02001655           JUNCTION      0.15   179.18     0  05:02     0.00434       0.999       1.279
  YS02001920           JUNCTION      2.87    42.66     0  03:01      0.0809       0.599       0.364
  YS02001923           JUNCTION      0.04    39.79     0  03:01     0.00106       0.518       0.064
  YS02001926           JUNCTION      0.05    39.83     0  03:01     0.00147        0.52       0.453
  YS02001929           JUNCTION     39.79    39.79     0  03:01       0.519       0.519       0.063
  YS02001658           JUNCTION      0.00   213.91     0  04:32           0        1.17       0.369
  YS02001661           JUNCTION      0.00   187.92     0  04:40           0        1.11       0.098
  YS02001664           JUNCTION    108.99   108.99     0  02:43       0.926       0.926       0.014
  YS02001622           JUNCTION      0.00    96.19     0  02:40           0       0.898       1.767
  YS02001633           JUNCTION     90.25   183.04     0  02:50       0.972        1.72       1.721
  YS02001649           JUNCTION      0.00   383.06     0  03:03           0        3.43       1.060
  YS02001757           JUNCTION      0.00   682.62     0  02:56           0        6.41       1.445
  YS02001895           JUNCTION      0.00   152.68     0  02:44           0        1.24       0.315
  YS02001625           JUNCTION      0.00   152.04     0  04:55           0       0.942       3.231
  YS02163301           JUNCTION      0.00   104.11     0  02:41           0       0.777       2.764
  YS02163601           JUNCTION      0.11   178.02     0  02:52      0.0031        1.69       1.741
  YS02164001           JUNCTION      0.00   175.91     0  02:48           0        1.67       1.055
  YS02001647           JUNCTION      0.00   267.83     0  02:51           0        2.55       0.730
  YSB1154              JUNCTION     15.87    15.87     0  02:14      0.0539      0.0553       2.682
  YSB6556              JUNCTION      0.00    15.85     0  02:16           0      0.0562       2.267
  YSB1174              JUNCTION     15.74    15.74     0  02:08      0.0392      0.0403       3.290
  YSB1171              JUNCTION      0.00    29.53     0  02:14           0       0.102       6.602
  YS02006553           JUNCTION      0.00   277.36     0  02:59           0        2.64       0.550
  YS02006561           JUNCTION      0.00   421.88     0  02:48           0        3.74       0.010
  YS02006556           JUNCTION      0.00   277.87     0  02:59           0        2.65       0.398
  YS02006558           JUNCTION    130.02   407.28     0  02:59        1.15        3.77       0.131
  YS02001783           JUNCTION      0.00   405.08     0  02:52           0        3.74       0.044
  YS02001784           JUNCTION      1.06   406.08     0  02:52      0.0299        3.76       0.072
  YS02001786           JUNCTION      0.06   406.07     0  02:52     0.00159        3.76       0.070
  YS02001788           JUNCTION      0.07   406.12     0  02:52       0.002        3.76       0.040
  YS02001790           JUNCTION      0.15   406.26     0  02:52     0.00437        3.77       0.050
  YS02001791           JUNCTION      0.00   406.23     0  02:53           0        3.76       0.025
  YS02001793           JUNCTION      0.00   406.23     0  02:53           0        3.76       0.011
  WS02004139           JUNCTION      0.32   380.32     0  02:52     0.00905        6.19       0.540
  WSC                  OUTFALL       0.00   906.20     0  02:56           0        14.3       0.000
  3                    OUTFALL       0.00   516.14     0  02:41           0        3.39       0.000
  4                    OUTFALL       0.00   154.90     0  02:40           0       0.535       0.000
  5                    OUTFALL       0.00     0.00     0  00:00           0           0       0.000 ltr
  JK-storage           STORAGE       0.00   407.23     0  02:58           0        3.91     -26.348
  CC-storage           STORAGE       0.00   682.96     0  02:56           0        6.31      -0.456
  XR-storage           STORAGE     351.12   351.12     0  02:52        7.29        7.89      -0.003
  
  
  **********************
  Node Surcharge Summary
  **********************
  
  Surcharging occurs when water rises above the top of the highest conduit.
  ---------------------------------------------------------------------
                                               Max. Height   Min. Depth
                                   Hours       Above Crown    Below Rim
  Node                 Type      Surcharged         Meters       Meters
  ---------------------------------------------------------------------
  WS02006109           JUNCTION        2.27          0.198        1.622
  WS02006110           JUNCTION        0.36          0.043        1.807
  WS02006112           JUNCTION        0.51          0.067        1.613
  WS02006231           JUNCTION        0.04          0.042        1.488
  WS02006232           JUNCTION        2.54          0.193        1.287
  WS02006234           JUNCTION        0.48          0.116        1.124
  WS02006235           JUNCTION        1.63          0.141        1.149
  WS02006238           JUNCTION        1.99          0.157        1.273
  WS02006240           JUNCTION        0.30          0.087        1.303
  WS02006242           JUNCTION        1.57          0.116        0.704
  WS02006247           JUNCTION        0.01          0.760        0.000
  WS02006239           JUNCTION        0.56          0.109        1.181
  WS02006252           JUNCTION        2.60          0.192        0.908
  WS02006228           JUNCTION        2.13          0.244        1.956
  YS02001754           JUNCTION        1.76          0.218        0.932
  YS02001762           JUNCTION        5.13          0.589        0.561
  YS02001765           JUNCTION        4.71          0.588        0.512
  YS02001767           JUNCTION        4.43          0.610        0.420
  YS02001770           JUNCTION        4.18          0.674        0.246
  YS02001774           JUNCTION        5.01          0.807        0.243
  YS02001779           JUNCTION        1.24          0.568        0.112
  YS02001759           JUNCTION        5.34          0.569        0.641
  YS02001641           JUNCTION        4.94          0.430        0.670
  YS02001644           JUNCTION        4.96          0.437        0.483
  YS02001652           JUNCTION        2.48          0.268        0.862
  YS02001655           JUNCTION        0.01          0.088        1.112
  YS02001633           JUNCTION        4.55          0.379        0.681
  YS02001649           JUNCTION        5.26          0.470        0.580
  YS02001757           JUNCTION        5.43          0.618        0.592
  YS02001625           JUNCTION        2.83          0.199        0.581
  YS02163301           JUNCTION        4.29          0.330        0.700
  YS02163601           JUNCTION        5.16          0.465        0.615
  YS02164001           JUNCTION        4.61          0.414        0.686
  YS02001647           JUNCTION        2.72          0.259        0.641
  
  
  *********************
  Node Flooding Summary
  *********************
  
  Flooding refers to all water that overflows a node, whether it ponds or not.
  --------------------------------------------------------------------------
                                                             Total   Maximum
                                 Maximum   Time of Max       Flood    Ponded
                        Hours       Rate    Occurrence      Volume     Depth
  Node                 Flooded       LPS   days hr:min    10^6 ltr    Meters
  --------------------------------------------------------------------------
  WS02006247              0.01     44.55      0  02:23       0.000     0.000
  XR-storage              2.84    231.90      0  03:20       0.781     0.000
  
  
  **********************
  Storage Volume Summary
  **********************
  
  --------------------------------------------------------------------------------------------------
                         Average     Avg  Evap Exfil       Maximum     Max    Time of Max    Maximum
                          Volume    Pcnt  Pcnt  Pcnt        Volume    Pcnt     Occurrence    Outflow
  Storage Unit           1000 m3    Full  Loss  Loss       1000 m3    Full    days hr:min        LPS
  --------------------------------------------------------------------------------------------------
  JK-storage               0.004       1     0     0         0.151      52       0  00:00     600.00
  CC-storage               1.281       8     0     0         2.112      13       0  05:12     400.00
  XR-storage               0.878      95     0     0         0.926     100       0  02:45     380.00
  
  
  ***********************
  Outfall Loading Summary
  ***********************
  
  -----------------------------------------------------------
                         Flow       Avg       Max       Total
                         Freq      Flow      Flow      Volume
  Outfall Node           Pcnt       LPS       LPS    10^6 ltr
  -----------------------------------------------------------
  WSC                   99.99    592.88    906.20      14.299
  3                     87.14    193.41    516.14       3.392
  4                     43.08     56.00    154.90       0.535
  5                      0.00      0.00      0.00       0.000
  -----------------------------------------------------------
  System                57.55    842.28   1473.30      18.226
  
  
  ********************
  Link Flow Summary
  ********************
  
  -----------------------------------------------------------------------------
                                 Maximum  Time of Max   Maximum    Max/    Max/
                                  |Flow|   Occurrence   |Veloc|    Full    Full
  Link                 Type          LPS  days hr:min     m/sec    Flow   Depth
  -----------------------------------------------------------------------------
  WS02003066WSF200     CONDUIT    549.52     0  02:33      2.76    0.09    0.23
  WS02006287WS02006284 CONDUIT    252.54     0  02:16      1.74    0.12    0.24
  WS02006284WS02006280 CONDUIT    252.64     0  02:17      1.98    0.11    0.22
  WS02006280WS02006229 CONDUIT    252.65     0  02:17      3.18    0.05    0.16
  WS02006229WS02006228 CONDUIT    576.35     0  02:23      1.15    1.91    1.00
  WS02006256WS02006235 CONDUIT    166.25     0  00:01      2.58    1.76    1.00
  WS02006253WS02006251 CONDUIT     58.95     0  02:25      0.53    0.18    0.94
  WS02006252WS02006251 CONDUIT    400.63     0  05:21      3.19    1.47    1.00
  WS02006251WS02006249 CONDUIT    438.27     0  02:20      1.25    1.26    0.91
  WS02006249WS02006248 CONDUIT    380.05     0  02:20      1.25    2.08    0.88
  WS02006248WS02006247 CONDUIT    374.50     0  02:20      1.22    0.82    0.94
  WS02006247WS02006245 CONDUIT    366.35     0  02:20      1.19    2.90    0.96
  WS02006245WS02006243 CONDUIT    355.42     0  02:20      1.23    1.05    0.98
  WS02006243WS02006242 CONDUIT    339.68     0  02:21      1.04    0.73    1.00
  WS02006242WS02006240 CONDUIT    331.87     0  05:20      0.91    1.32    1.00
  WS02006240WS02006239 CONDUIT    329.96     0  05:20      0.95    1.04    1.00
  WS02006239WS02006238 CONDUIT    328.11     0  05:20      0.90    1.05    1.00
  WS02006238WS02006235 CONDUIT    326.28     0  05:20      1.25    0.73    1.00
  WS02006235WS02006234 CONDUIT    389.13     0  05:25      1.03    4.11    1.00
  WS02006234WS02006232 CONDUIT    387.80     0  05:25      1.13    0.78    1.00
  WS02006232WS02006231 CONDUIT    387.85     0  05:26      1.06    0.81    1.00
  WS02006231WS02006230 CONDUIT    386.99     0  05:26      1.36    5.87    1.00
  WS02006230WS02006229 CONDUIT    396.43     0  05:26      1.03    8.82    1.00
  WS02006228WS02006109 CONDUIT    576.36     0  02:23      1.15    2.52    1.00
  WS02006116WS02004401 CONDUIT    558.86     0  02:27      0.82    0.77    0.86
  WS02006115WS02006116 CONDUIT    570.87     0  02:24      0.94    0.73    0.78
  WS02006113WS02006111 CONDUIT    597.50     0  02:23      2.52    0.72    0.48
  WS02006112WS02006115 CONDUIT    588.20     0  02:24      0.83    0.35    0.88
  WS02006111WS02006112 CONDUIT    581.07     0  02:24      1.60    0.28    0.68
  WS02006110WS02006113 CONDUIT    580.77     0  02:23      1.36    0.53    0.79
  WS02006109WS02006110 CONDUIT    577.66     0  02:23      1.15    1.11    1.00
  WS02004411WS02004412 CONDUIT    549.90     0  02:32      0.94    0.78    0.70
  WS02004401WS02004402 CONDUIT    557.17     0  02:27      0.77    0.67    0.88
  WS02004413WS02003067 CONDUIT    549.27     0  02:32      1.12    0.24    0.60
  WS02004412WS02004413 CONDUIT    549.54     0  02:32      0.83    0.37    0.78
  WS02004410WS02004411 CONDUIT    550.80     0  02:31      0.96    0.75    0.69
  WS02004409WS02004410 CONDUIT    552.56     0  02:31      1.00    0.71    0.68
  WS02004407WS02004409 CONDUIT    555.96     0  02:29      1.53    0.20    0.49
  WS02004406WS02004407 CONDUIT    556.19     0  02:29      1.06    0.25    0.63
  WS02004405WS02004406 CONDUIT    556.64     0  02:29      0.72    1.10    0.97
  WS02004404WS02004405 CONDUIT    556.43     0  02:29      0.84    5.45    0.97
  WS02004403WS02004404 CONDUIT    556.26     0  02:29      0.74    0.40    0.94
  WS02004402WS02004403 CONDUIT    556.64     0  02:29      0.76    0.80    0.90
  WS02004139WS02001211 CONDUIT    380.73     0  03:03      0.81    0.48    0.59
  WS02004138WS02004139 CONDUIT    380.00     0  02:52      3.33    0.08    0.44
  WS02003067WS02003066 CONDUIT    549.45     0  02:32      1.22    0.18    0.42
  WS02001213WS02003059 CONDUIT    389.55     0  03:02      0.80    0.64    0.77
  WS02001212WS02001213 CONDUIT    388.90     0  03:06      1.28    0.60    0.47
  WS02001211WS02001212 CONDUIT    388.50     0  03:03      0.75    0.30    0.65
  WS02003072WS02003073 CONDUIT    904.21     0  02:56      1.70    1.95    0.48
  WS02003069WS02003072 CONDUIT    904.23     0  02:55      1.60    0.44    0.50
  WS02003060WS02003069 CONDUIT    904.05     0  02:55      1.85    0.35    0.45
  WS02003059WS02003060 CONDUIT    390.49     0  03:05      0.90    0.25    0.65
  HS02004901HS02004770 CONDUIT     12.85     0  02:13      0.05    0.05    0.35
  HS02004876HS02004881 CONDUIT     43.51     0  02:16      0.66    0.46    0.09
  HS02004870HS02004876 CONDUIT     34.61     0  02:17      0.46    0.02    0.11
  HS02004842HS02004848 CONDUIT      6.34     0  02:29      0.03    0.00    0.28
  HS02004837HS02004842 CONDUIT      6.57     0  02:29      0.41    0.00    0.30
  HS02004830HS02004837 CONDUIT     27.45     0  02:16      0.47    0.03    0.08
  HS02004824HS02004830 CONDUIT     27.59     0  02:17      0.51    0.04    0.08
  HS02004817HS02004824 CONDUIT     45.65     0  02:20      0.17    0.02    0.42
  HS02004770HS02004777 CONDUIT     65.39     0  02:13      0.26    0.12    0.36
  HS02004799HS02004480 CONDUIT    161.25     0  02:14      0.66    0.20    0.35
  HS02004792HS02004799 CONDUIT    147.40     0  02:14      0.76    0.09    0.28
  HS02004788HS02004792 CONDUIT     85.73     0  02:15      0.90    0.06    0.14
  HS02004785HS02004788 CONDUIT     64.98     0  02:15      0.57    0.49    0.16
  HS02004777HS02004785 CONDUIT     64.92     0  02:14      0.31    0.08    0.29
  HS02004480HS02004478 CONDUIT    190.44     0  02:15      1.05    0.80    0.26
  HS02004479HS02004480 CONDUIT     29.84     0  02:17      0.15    0.03    0.34
  HS02004862HS02004870 CONDUIT     25.36     0  02:17      0.51    0.03    0.07
  HS02004848HS02004852 CONDUIT     10.50     0  02:16      0.34    0.01    0.04
  HS02004856HS02004862 CONDUIT     17.33     0  02:17      0.38    0.02    0.07
  HS02004852HS02004856 CONDUIT     10.46     0  02:18      0.15    0.01    0.10
  HS02004802HS02004478 CONDUIT     64.12     0  02:20      0.33    0.06    0.28
  HS02004478WS02006287 CONDUIT    252.53     0  02:16      1.43    0.07    0.20
  HS02004817HS02004807 CONDUIT     46.98     0  02:21      0.13    0.03    0.54
  HS02004807HS02004802 CONDUIT     63.61     0  02:19      0.28    0.12    0.33
  YS02001759YS02001757 CONDUIT    246.58     0  02:46      0.31    0.18    1.00
  YS02001762YS02001759 CONDUIT    131.97     0  03:01      0.18    0.15    1.00
  YS02001765YS02001762 CONDUIT    131.30     0  03:01      0.23    0.12    1.00
  YS02001770YS02001767 CONDUIT    135.70     0  02:41      0.33    0.54    1.00
  YS02001774YS02001770 CONDUIT     51.39     0  04:01      0.14    0.03    1.00
  YS02001779YS02001774 CONDUIT     51.47     0  04:01      0.09    0.03    1.00
  YS02001649YS02001757 CONDUIT    384.95     0  03:03      0.49    0.23    1.00
  YS02001767YS02001765 CONDUIT    135.36     0  02:33      0.26    0.17    1.00
  YS02006561YS02001783 CONDUIT    405.08     0  02:52      1.91    0.21    0.44
  YS02001783YS02001784 CONDUIT    405.02     0  02:52      1.34    0.56    0.58
  YS02001784YS02001785 CONDUIT    406.02     0  02:52      1.44    0.94    0.55
  YS02001788YS02001790 CONDUIT    406.11     0  02:52      2.00    0.30    0.42
  YS02001790YS02001791 CONDUIT    406.23     0  02:53      2.32    0.44    0.38
  YS02001791YS02001793 CONDUIT    406.23     0  02:53      4.74    0.17    0.24
  YS02001910YS02001907 CONDUIT    129.51     0  03:03      0.49    0.07    0.80
  YS02001786YS02001788 CONDUIT    406.04     0  02:52      1.89    0.78    0.44
  YS02001915YS02001910 CONDUIT    128.14     0  02:59      0.44    0.06    0.59
  YS02001918YS02001915 CONDUIT     45.12     0  03:02      0.44    0.02    0.31
  YS02001923YS02001920 CONDUIT     39.79     0  03:01      0.50    0.02    0.16
  YS02001926YS02001923 CONDUIT     39.76     0  03:01      0.54    0.06    0.15
  YS02001929YS02001926 CONDUIT     39.78     0  03:01      0.58    0.02    0.14
  YS02001920YS02001918 CONDUIT     43.01     0  03:03      0.50    0.04    0.18
  YS02001629YS02163301 CONDUIT    104.11     0  02:41      0.13    0.13    1.00
  YS02001619YS02001622 CONDUIT     96.19     0  02:40      0.70    0.14    0.89
  YS02001622YS02001625 CONDUIT    152.04     0  04:55      0.28    0.08    0.95
  YS02001625YS02001629 CONDUIT    151.03     0  04:55      0.27    0.07    0.96
  YS02163301YS02001633 CONDUIT     93.69     0  02:50      0.12    0.09    1.00
  YS02163601YS02164001 CONDUIT    175.91     0  02:48      0.22    0.16    1.00
  YS02164001YS02001641 CONDUIT    175.38     0  02:52      0.22    0.24    1.00
  YS02001641YS02001644 CONDUIT    177.20     0  02:52      0.23    0.57    1.00
  YS02001647YS02001649 CONDUIT    300.26     0  02:51      0.39    0.16    1.00
  YS02006553YS02006556 CONDUIT    277.87     0  02:59      0.38    0.24    0.88
  YS02006556YS02006558 CONDUIT    281.02     0  02:59      0.38    0.22    0.91
  YSB6556YSB1171       CONDUIT     16.16     0  02:17      0.07    0.02    0.61
  YS02001907YS02006553 CONDUIT    277.36     0  02:59      0.31    0.33    0.99
  YS02006558YS02006561 CONDUIT    421.88     0  02:48      2.57    0.93    0.56
  YS02001633YS02163601 CONDUIT    177.91     0  02:52      0.23    0.19    1.00
  YS02001644YS02001647 CONDUIT    267.83     0  02:51      0.35    0.16    1.00
  YS02001745YS02001748 CONDUIT    191.33     0  05:21      1.48    0.07    0.47
  YS02001748YS02001751 CONDUIT    179.50     0  05:14      1.15    0.09    0.83
  YS02001751YS02001754 CONDUIT    151.18     0  03:31      1.01    0.07    0.99
  YS02001754YS02001757 CONDUIT    131.02     0  03:19      0.33    0.05    1.00
  YS02001882YS02001884 CONDUIT      4.84     0  02:06      0.06    0.01    0.53
  YS02001884YS02001887 CONDUIT     13.78     0  02:05      0.06    0.02    0.62
  YS02001890YS02001895 CONDUIT    152.68     0  02:44      0.32    0.07    0.59
  YS02001895YS02001898 CONDUIT    152.46     0  02:44      0.50    0.26    0.45
  YS02001898YS02001901 CONDUIT    152.31     0  02:45      0.36    0.10    0.53
  YS02001901YS02001904 CONDUIT    152.11     0  02:47      0.32    0.24    0.58
  YS02001904YS02001907 CONDUIT    152.27     0  02:47      0.24    0.05    0.74
  YS02001887YS02001890 CONDUIT    153.13     0  02:44      0.27    0.26    0.67
  YS02001652YS02001649 CONDUIT    154.09     0  03:00      0.35    0.08    1.00
  YS02001655YS02001652 CONDUIT    195.71     0  03:27      1.08    0.10    1.00
  YS02001658YS02001655 CONDUIT    167.41     0  04:27      1.33    0.07    0.83
  YS02001661YS02001658 CONDUIT    213.91     0  04:32      1.54    0.08    0.48
  YS02001664YS02001661 CONDUIT    108.99     0  02:43      1.24    0.03    0.24
  YSB1154YSB6556       CONDUIT     15.85     0  02:16      0.19    0.03    0.50
  YSB1174YSB1171       CONDUIT     14.63     0  02:10      0.06    0.02    0.61
  YSB1171HS02004479    CONDUIT     29.57     0  02:16      0.54    0.02    0.48
  HS02004881HS02006253 CONDUIT     48.65     0  02:16      1.81    0.01    0.26
  YS02001793JiankangQianchi CONDUIT    407.23     0  02:58     14.29    0.03    0.50
  YS02001757CaochengTiaoxuchi CONDUIT    682.96     0  02:56      1.54    0.30    0.88
  WSF200WS02003060     CONDUIT    549.48     0  02:33      1.79    0.12    0.33
  1                    CONDUIT    906.20     0  02:56      3.24    0.32    0.39
  2                    CONDUIT    154.90     0  02:40      5.47    0.37    0.42
  3                    CONDUIT    516.14     0  02:41      9.84    0.82    0.70
  4                    CONDUIT      0.00     0  00:00      0.00    0.00    0.00
  CC-Pump-1            PUMP       200.00     0  02:18              1.00
  CC-Pump-2            PUMP       200.00     0  02:40              1.00
  JK-Pump-1            PUMP       300.00     0  02:23              1.00
  JK-Pump-2            PUMP       300.00     0  00:00              1.00
  XR-Pump-1            PUMP        95.00     0  00:00              1.00
  XR-Pump-2            PUMP        95.00     0  00:00              1.00
  XR-Pump-3            PUMP        95.00     0  01:30              1.00
  XR-Pump-4            PUMP        95.00     0  00:00              1.00
  
  
  ***************************
  Flow Classification Summary
  ***************************
  
  -------------------------------------------------------------------------------------
                      Adjusted    ---------- Fraction of Time in Flow Class ---------- 
                       /Actual         Up    Down  Sub   Sup   Up    Down  Norm  Inlet 
  Conduit               Length    Dry  Dry   Dry   Crit  Crit  Crit  Crit  Ltd   Ctrl  
  -------------------------------------------------------------------------------------
  WS02003066WSF200        1.00   0.05  0.00  0.00  0.00  0.94  0.00  0.00  0.70  0.00
  WS02006287WS02006284    1.00   0.04  0.01  0.00  0.66  0.28  0.00  0.00  0.77  0.00
  WS02006284WS02006280    1.00   0.04  0.00  0.00  0.00  0.00  0.00  0.96  0.00  0.00
  WS02006280WS02006229    1.00   0.05  0.00  0.00  0.00  0.00  0.00  0.95  0.00  0.00
  WS02006229WS02006228    1.00   0.00  0.00  0.00  0.99  0.00  0.00  0.01  0.00  0.00
  WS02006256WS02006235    1.00   0.00  0.00  0.00  1.00  0.00  0.00  0.00  0.00  0.00
  WS02006253WS02006251    1.00   0.03  0.01  0.00  0.96  0.00  0.00  0.00  0.00  0.00
  WS02006252WS02006251    1.00   0.08  0.00  0.00  0.00  0.00  0.92  0.00  0.00  0.00
  WS02006251WS02006249    1.00   0.00  0.00  0.00  1.00  0.00  0.00  0.00  0.25  0.00
  WS02006249WS02006248    1.00   0.00  0.02  0.00  0.92  0.00  0.06  0.00  0.00  0.00
  WS02006248WS02006247    1.00   0.02  0.00  0.00  0.98  0.00  0.00  0.00  0.15  0.00
  WS02006247WS02006245    1.00   0.02  0.00  0.00  0.98  0.00  0.00  0.00  0.00  0.00
  WS02006245WS02006243    1.00   0.01  0.00  0.00  0.94  0.00  0.00  0.04  0.01  0.00
  WS02006243WS02006242    1.00   0.01  0.00  0.00  0.99  0.00  0.00  0.00  0.26  0.00
  WS02006242WS02006240    1.00   0.00  0.00  0.00  1.00  0.00  0.00  0.00  0.00  0.00
  WS02006240WS02006239    1.00   0.00  0.00  0.00  0.96  0.00  0.00  0.04  0.01  0.00
  WS02006239WS02006238    1.00   0.00  0.00  0.00  1.00  0.00  0.00  0.00  0.00  0.00
  WS02006238WS02006235    1.00   0.00  0.00  0.00  1.00  0.00  0.00  0.00  0.00  0.00
  WS02006235WS02006234    1.00   0.00  0.00  0.00  0.95  0.00  0.05  0.00  0.00  0.00
  WS02006234WS02006232    1.00   0.00  0.00  0.00  1.00  0.00  0.00  0.00  0.09  0.00
  WS02006232WS02006231    1.00   0.00  0.00  0.00  0.99  0.00  0.00  0.00  0.00  0.00
  WS02006231WS02006230    1.00   0.00  0.00  0.00  0.71  0.00  0.28  0.00  0.00  0.00
  WS02006230WS02006229    1.00   0.00  0.00  0.00  0.99  0.00  0.00  0.01  0.00  0.00
  WS02006228WS02006109    1.00   0.00  0.00  0.00  1.00  0.00  0.00  0.00  0.00  0.00
  WS02006116WS02004401    1.00   0.03  0.00  0.00  0.97  0.00  0.00  0.00  0.00  0.00
  WS02006115WS02006116    1.00   0.03  0.00  0.00  0.97  0.00  0.00  0.01  0.00  0.00
  WS02006113WS02006111    1.00   0.02  0.00  0.00  0.00  0.98  0.00  0.00  0.10  0.00
  WS02006112WS02006115    1.00   0.02  0.00  0.00  0.97  0.00  0.00  0.00  0.00  0.00
  WS02006111WS02006112    1.00   0.02  0.00  0.00  0.98  0.00  0.00  0.00  0.98  0.00
  WS02006110WS02006113    1.00   0.01  0.01  0.00  0.98  0.00  0.00  0.00  0.00  0.00
  WS02006109WS02006110    1.00   0.00  0.01  0.00  0.98  0.00  0.01  0.00  0.00  0.00
  WS02004411WS02004412    1.00   0.04  0.00  0.00  0.96  0.00  0.00  0.00  0.00  0.00
  WS02004401WS02004402    1.00   0.03  0.00  0.00  0.97  0.00  0.00  0.00  0.00  0.00
  WS02004413WS02003067    1.00   0.04  0.01  0.00  0.00  0.00  0.95  0.00  0.00  0.00
  WS02004412WS02004413    1.00   0.04  0.00  0.00  0.96  0.00  0.00  0.00  0.03  0.00
  WS02004410WS02004411    1.00   0.04  0.00  0.00  0.96  0.00  0.00  0.00  0.03  0.00
  WS02004409WS02004410    1.00   0.04  0.00  0.00  0.96  0.00  0.00  0.00  0.04  0.00
  WS02004407WS02004409    1.00   0.04  0.00  0.00  0.96  0.00  0.00  0.00  0.89  0.00
  WS02004406WS02004407    1.00   0.00  0.04  0.00  0.96  0.00  0.00  0.00  0.00  0.00
  WS02004405WS02004406    1.00   0.00  0.00  0.00  1.00  0.00  0.00  0.00  0.01  0.00
  WS02004404WS02004405    1.00   0.00  0.00  0.00  1.00  0.00  0.00  0.00  0.00  0.00
  WS02004403WS02004404    1.00   0.00  0.03  0.00  0.97  0.00  0.00  0.00  0.01  0.00
  WS02004402WS02004403    1.00   0.03  0.00  0.00  0.97  0.00  0.00  0.00  0.00  0.00
  WS02004139WS02001211    1.00   0.00  0.00  0.00  1.00  0.00  0.00  0.00  0.00  0.00
  WS02004138WS02004139    1.00   0.00  0.00  0.00  0.99  0.01  0.00  0.00  1.00  0.00
  WS02003067WS02003066    1.00   0.05  0.00  0.00  0.94  0.00  0.00  0.00  0.00  0.00
  WS02001213WS02003059    1.00   0.00  0.00  0.00  0.99  0.00  0.00  0.00  0.00  0.00
  WS02001212WS02001213    1.00   0.00  0.00  0.00  0.88  0.00  0.12  0.00  0.00  0.00
  WS02001211WS02001212    1.00   0.00  0.00  0.00  1.00  0.00  0.00  0.00  0.00  0.00
  WS02003072WS02003073    1.00   0.00  0.00  0.00  0.00  0.00  0.00  1.00  0.00  0.00
  WS02003069WS02003072    1.00   0.00  0.00  0.00  0.99  0.01  0.00  0.00  0.27  0.00
  WS02003060WS02003069    1.00   0.00  0.00  0.00  0.98  0.02  0.00  0.00  0.17  0.00
  WS02003059WS02003060    1.00   0.00  0.00  0.00  1.00  0.00  0.00  0.00  0.01  0.00
  HS02004901HS02004770    1.00   0.04  0.00  0.00  0.96  0.00  0.00  0.00  0.02  0.00
  HS02004876HS02004881    1.00   0.02  0.00  0.00  0.98  0.00  0.00  0.00  0.00  0.00
  HS02004870HS02004876    1.00   0.00  0.00  0.00  0.99  0.00  0.00  0.00  0.95  0.00
  HS02004842HS02004848    1.00   0.00  0.04  0.00  0.96  0.00  0.00  0.00  0.68  0.00
  HS02004837HS02004842    1.00   0.00  0.00  0.00  0.99  0.01  0.00  0.00  0.11  0.00
  HS02004830HS02004837    1.00   0.00  0.00  0.00  1.00  0.00  0.00  0.00  0.99  0.00
  HS02004824HS02004830    1.00   0.00  0.00  0.00  1.00  0.00  0.00  0.00  0.00  0.00
  HS02004817HS02004824    1.00   0.00  0.00  0.00  1.00  0.00  0.00  0.00  1.00  0.00
  HS02004770HS02004777    1.00   0.00  0.04  0.00  0.96  0.00  0.00  0.00  0.07  0.00
  HS02004799HS02004480    1.00   0.00  0.02  0.00  0.94  0.00  0.03  0.00  0.00  0.00
  HS02004792HS02004799    1.00   0.00  0.00  0.00  0.99  0.01  0.00  0.00  0.98  0.00
  HS02004788HS02004792    1.00   0.00  0.00  0.00  0.99  0.01  0.00  0.00  0.98  0.00
  HS02004785HS02004788    1.00   0.00  0.00  0.00  1.00  0.00  0.00  0.00  0.00  0.00
  HS02004777HS02004785    1.00   0.00  0.00  0.00  1.00  0.00  0.00  0.00  0.20  0.00
  HS02004480HS02004478    1.00   0.05  0.00  0.00  0.71  0.00  0.00  0.25  0.00  0.00
  HS02004479HS02004480    1.00   0.03  0.00  0.00  0.97  0.00  0.00  0.00  0.16  0.00
  HS02004862HS02004870    1.00   0.00  0.00  0.00  1.00  0.00  0.00  0.00  0.06  0.00
  HS02004848HS02004852    1.00   0.04  0.00  0.00  0.96  0.00  0.00  0.00  0.71  0.00
  HS02004856HS02004862    1.00   0.00  0.07  0.00  0.93  0.00  0.00  0.00  0.74  0.00
  HS02004852HS02004856    1.00   0.04  0.01  0.00  0.95  0.00  0.00  0.00  0.83  0.00
  HS02004802HS02004478    1.00   0.04  0.00  0.00  0.95  0.00  0.00  0.00  0.01  0.00
  HS02004478WS02006287    1.00   0.05  0.00  0.00  0.84  0.11  0.00  0.00  0.75  0.00
  HS02004817HS02004807    1.00   0.00  0.04  0.00  0.96  0.00  0.00  0.00  0.00  0.00
  HS02004807HS02004802    1.00   0.04  0.00  0.00  0.95  0.00  0.00  0.00  0.01  0.00
  YS02001759YS02001757    1.00   0.00  0.00  0.00  1.00  0.00  0.00  0.00  0.17  0.00
  YS02001762YS02001759    1.00   0.00  0.00  0.00  1.00  0.00  0.00  0.00  0.04  0.00
  YS02001765YS02001762    1.00   0.00  0.00  0.00  1.00  0.00  0.00  0.00  0.22  0.00
  YS02001770YS02001767    1.00   0.00  0.00  0.00  1.00  0.00  0.00  0.00  0.00  0.00
  YS02001774YS02001770    1.00   0.00  0.05  0.00  0.95  0.00  0.00  0.00  0.06  0.00
  YS02001779YS02001774    1.00   0.00  0.00  0.00  1.00  0.00  0.00  0.00  0.26  0.00
  YS02001649YS02001757    1.00   0.00  0.00  0.00  1.00  0.00  0.00  0.00  0.19  0.00
  YS02001767YS02001765    1.00   0.00  0.00  0.00  1.00  0.00  0.00  0.00  0.01  0.00
  YS02006561YS02001783    1.00   0.07  0.00  0.00  0.00  0.93  0.00  0.00  0.64  0.00
  YS02001783YS02001784    1.00   0.00  0.07  0.00  0.93  0.00  0.00  0.00  0.00  0.00
  YS02001784YS02001785    1.00   0.00  0.00  0.00  1.00  0.00  0.00  0.00  0.25  0.00
  YS02001788YS02001790    1.00   0.00  0.00  0.00  0.07  0.93  0.00  0.00  0.72  0.00
  YS02001790YS02001791    1.00   0.00  0.00  0.00  0.02  0.98  0.00  0.00  0.60  0.00
  YS02001791YS02001793    1.00   0.00  0.00  0.00  0.00  1.00  0.00  0.00  0.00  0.00
  YS02001910YS02001907    1.00   0.00  0.00  0.00  0.97  0.00  0.00  0.02  0.13  0.00
  YS02001786YS02001788    1.00   0.00  0.00  0.00  0.07  0.93  0.00  0.00  0.00  0.00
  YS02001915YS02001910    1.00   0.00  0.00  0.00  0.99  0.01  0.00  0.00  0.24  0.00
  YS02001918YS02001915    1.00   0.00  0.01  0.00  0.98  0.01  0.00  0.00  0.72  0.00
  YS02001923YS02001920    1.00   0.00  0.00  0.00  1.00  0.00  0.00  0.00  1.00  0.00
  YS02001926YS02001923    1.00   0.00  0.03  0.00  0.00  0.00  0.97  0.00  0.00  0.00
  YS02001929YS02001926    1.00   0.00  0.04  0.00  0.96  0.00  0.00  0.00  0.87  0.00
  YS02001920YS02001918    1.00   0.00  0.01  0.00  0.99  0.00  0.00  0.00  0.00  0.00
  YS02001629YS02163301    1.00   0.06  0.00  0.00  0.94  0.00  0.00  0.00  0.00  0.00
  YS02001619YS02001622    1.00   0.04  0.00  0.00  0.96  0.00  0.00  0.00  0.00  0.00
  YS02001622YS02001625    1.00   0.04  0.00  0.00  0.96  0.00  0.00  0.00  0.12  0.00
  YS02001625YS02001629    1.00   0.04  0.02  0.00  0.92  0.00  0.01  0.00  0.00  0.00
  YS02163301YS02001633    1.00   0.00  0.06  0.00  0.94  0.00  0.00  0.00  0.00  0.00
  YS02163601YS02164001    1.00   0.00  0.04  0.00  0.96  0.00  0.00  0.00  0.00  0.00
  YS02164001YS02001641    1.00   0.01  0.03  0.00  0.96  0.00  0.00  0.00  0.07  0.00
  YS02001641YS02001644    1.00   0.00  0.01  0.00  0.99  0.00  0.00  0.00  0.00  0.00
  YS02001647YS02001649    1.00   0.00  0.07  0.00  0.93  0.00  0.00  0.00  0.01  0.00
  YS02006553YS02006556    1.00   0.01  0.00  0.00  0.99  0.00  0.00  0.00  0.03  0.00
  YS02006556YS02006558    1.00   0.00  0.00  0.00  1.00  0.00  0.00  0.00  0.00  0.00
  YSB6556YSB1171          1.00   0.03  0.01  0.00  0.96  0.00  0.00  0.00  0.00  0.00
  YS02001907YS02006553    1.00   0.00  0.02  0.00  0.98  0.00  0.00  0.00  0.00  0.00
  YS02006558YS02006561    1.00   0.07  0.00  0.00  0.00  0.93  0.00  0.00  0.64  0.00
  YS02001633YS02163601    1.00   0.00  0.01  0.00  0.99  0.00  0.00  0.00  0.20  0.00
  YS02001644YS02001647    1.00   0.00  0.07  0.00  0.93  0.00  0.00  0.00  0.00  0.00
  YS02001745YS02001748    1.00   0.00  0.00  0.00  0.87  0.01  0.00  0.11  0.35  0.00
  YS02001748YS02001751    1.00   0.00  0.00  0.00  0.98  0.02  0.00  0.00  0.23  0.00
  YS02001751YS02001754    1.00   0.00  0.00  0.00  0.93  0.00  0.00  0.07  0.01  0.00
  YS02001754YS02001757    1.00   0.00  0.00  0.00  0.99  0.01  0.00  0.00  0.26  0.00
  YS02001882YS02001884    1.00   0.06  0.00  0.00  0.94  0.00  0.00  0.00  0.00  0.00
  YS02001884YS02001887    1.00   0.03  0.01  0.00  0.96  0.00  0.00  0.00  0.00  0.00
  YS02001890YS02001895    1.00   0.00  0.06  0.00  0.94  0.00  0.00  0.00  0.00  0.00
  YS02001895YS02001898    1.00   0.06  0.00  0.00  0.93  0.00  0.01  0.00  0.00  0.00
  YS02001898YS02001901    1.00   0.06  0.00  0.00  0.94  0.00  0.00  0.00  0.02  0.00
  YS02001901YS02001904    1.00   0.06  0.00  0.00  0.94  0.00  0.00  0.00  0.00  0.00
  YS02001904YS02001907    1.00   0.00  0.06  0.00  0.94  0.00  0.00  0.00  0.00  0.00
  YS02001887YS02001890    1.00   0.00  0.00  0.00  0.97  0.00  0.02  0.00  0.00  0.00
  YS02001652YS02001649    1.00   0.00  0.00  0.00  1.00  0.00  0.00  0.00  0.25  0.00
  YS02001655YS02001652    1.00   0.00  0.00  0.00  0.93  0.00  0.00  0.07  0.02  0.00
  YS02001658YS02001655    1.00   0.00  0.05  0.00  0.92  0.03  0.00  0.00  0.09  0.00
  YS02001661YS02001658    1.00   0.05  0.00  0.00  0.87  0.07  0.00  0.00  0.31  0.00
  YS02001664YS02001661    1.00   0.04  0.00  0.00  0.69  0.27  0.00  0.00  0.86  0.00
  YSB1154YSB6556          1.00   0.04  0.00  0.00  0.96  0.00  0.00  0.00  0.02  0.00
  YSB1174YSB1171          1.00   0.03  0.01  0.00  0.96  0.00  0.00  0.00  0.00  0.00
  YSB1171HS02004479       1.00   0.03  0.00  0.00  0.97  0.00  0.00  0.00  0.13  0.00
  HS02004881HS02006253    1.00   0.03  0.00  0.00  0.88  0.00  0.00  0.08  0.68  0.00
  YS02001793JiankangQianchi    1.00   0.00  0.00  0.00  0.05  0.95  0.00  0.00  0.13  0.00
  YS02001757CaochengTiaoxuchi    1.00   0.00  0.08  0.00  0.92  0.00  0.00  0.00  0.00  0.00
  WSF200WS02003060        1.00   0.00  0.05  0.00  0.63  0.32  0.00  0.00  0.12  0.00
  1                       1.00   0.00  0.00  0.00  0.00  1.00  0.00  0.00  0.39  0.00
  2                       1.00   0.56  0.00  0.00  0.00  0.43  0.00  0.00  0.10  0.00
  3                       1.00   0.13  0.00  0.00  0.00  0.87  0.00  0.00  0.29  0.00
  4                       1.00   1.00  0.00  0.00  0.00  0.00  0.00  0.00  0.00  0.00
  
  
  *************************
  Conduit Surcharge Summary
  *************************
  
  ----------------------------------------------------------------------------
                                                           Hours        Hours 
                         --------- Hours Full --------   Above Full   Capacity
  Conduit                Both Ends  Upstream  Dnstream   Normal Flow   Limited
  ----------------------------------------------------------------------------
  WS02006229WS02006228        2.13      2.39      2.13      5.13         2.13
  WS02006256WS02006235        5.73      5.73      7.36      2.52         0.01
  WS02006252WS02006251        1.48      1.48      2.60      2.31         0.01
  WS02006251WS02006249        0.01      0.01      0.01      1.55         0.01
  WS02006249WS02006248        0.01      0.01      0.01      5.17         0.01
  WS02006248WS02006247        0.01      0.01      0.01      0.01         0.01
  WS02006247WS02006245        0.01      0.01      0.01      5.29         0.01
  WS02006245WS02006243        0.01      0.01      0.01      0.04         0.01
  WS02006243WS02006242        0.01      0.01      1.57      0.01         0.01
  WS02006242WS02006240        0.30      0.30      1.98      2.46         0.01
  WS02006240WS02006239        0.38      0.38      0.56      0.03         0.01
  WS02006239WS02006238        1.87      1.87      1.99      0.06         0.04
  WS02006238WS02006235        1.85      1.85      2.41      0.01         0.01
  WS02006235WS02006234        0.48      0.48      1.63      5.75         0.01
  WS02006234WS02006232        0.62      0.62      2.54      0.01         0.01
  WS02006232WS02006231        0.04      0.04      2.54      0.01         0.01
  WS02006231WS02006230        0.01      0.01      0.08      5.74         0.01
  WS02006230WS02006229        3.65      4.94      3.65      5.84         3.65
  WS02006228WS02006109        2.27      2.90      2.27      5.47         2.27
  WS02006112WS02006115        0.01      0.01      0.51      0.01         0.01
  WS02006111WS02006112        0.01      0.01      5.21      0.01         0.01
  WS02006110WS02006113        0.01      0.01      2.65      0.01         0.01
  WS02006109WS02006110        0.36      0.36      2.90      0.36         0.01
  WS02004405WS02004406        0.01      0.01      0.01      0.43         0.01
  WS02004404WS02004405        0.01      0.01      0.01      5.65         0.01
  WS02003072WS02003073        0.01      0.01      0.01      5.19         0.01
  YS02001759YS02001757        5.34      5.34      5.43      0.01         0.01
  YS02001762YS02001759        5.13      5.13      5.34      0.01         0.03
  YS02001765YS02001762        4.71      4.71      5.13      0.01         0.01
  YS02001770YS02001767        4.40      4.41      4.43      0.01         0.82
  YS02001774YS02001770        4.18      4.18      5.01      0.01         0.01
  YS02001779YS02001774        1.24      1.24      5.01      0.01         0.01
  YS02001649YS02001757        5.26      5.26      5.43      0.01         0.01
  YS02001767YS02001765        4.43      4.43      4.71      0.01         0.03
  YS02001629YS02163301        4.04      4.04      4.29      0.01         0.01
  YS02001622YS02001625        0.01      0.01      2.83      0.01         0.01
  YS02001625YS02001629        0.01      0.01      2.83      0.01         0.01
  YS02163301YS02001633        4.29      4.29      4.69      0.01         0.01
  YS02163601YS02164001        4.61      4.61      5.16      0.01         0.01
  YS02164001YS02001641        4.61      4.61      4.94      0.01         0.01
  YS02001641YS02001644        4.94      4.94      4.96      0.01         0.42
  YS02001647YS02001649        2.72      2.72      5.26      0.01         0.01
  YS02001907YS02006553        0.01      0.01      0.52      0.01         0.01
  YS02001633YS02163601        4.55      4.55      5.16      0.01         0.01
  YS02001644YS02001647        2.72      2.72      4.96      0.01         0.01
  YS02001751YS02001754        0.01      0.01      1.75      0.01         0.01
  YS02001754YS02001757        2.73      2.73      5.43      0.01         0.01
  YS02001652YS02001649        3.06      3.06      5.26      0.01         0.01
  YS02001655YS02001652        0.01      0.01      2.48      0.01         0.01
  YS02001658YS02001655        0.01      0.01      0.01      0.01         0.01
  YS02001793JiankangQianchi        0.01      0.01      0.09      0.01         0.01
  YS02001757CaochengTiaoxuchi        0.01      0.01      5.43      0.01         0.01
  
  
  ***************
  Pumping Summary
  ***************
  
  ---------------------------------------------------------------------------------------------------------
                                                  Min       Avg       Max     Total     Power    % Time Off
                        Percent   Number of      Flow      Flow      Flow    Volume     Usage    Pump Curve
  Pump                 Utilized   Start-Ups       LPS       LPS       LPS  10^6 ltr     Kw-hr    Low   High
  ---------------------------------------------------------------------------------------------------------
  CC-Pump-1               67.12           5      0.00    154.80    200.00     2.918      9.41    0.0   12.8
  CC-Pump-2               60.74           5      0.00    137.42    200.00     2.376      7.89    0.0   17.6
  JK-Pump-1               93.60           3      0.00    133.52    300.00     2.614     51.31    0.0    0.0
  JK-Pump-2               85.10           9      0.00    146.40    300.00     2.699     52.28    0.0    0.0
  XR-Pump-1               89.35           6      0.00     71.64     95.00     1.710     12.53    0.0    0.0
  XR-Pump-2               70.21           8      0.00     66.19     95.00     1.283      8.57    0.0    0.0
  XR-Pump-3               85.08           6      0.00     66.59     95.00     1.567     11.82    0.0    0.0
  XR-Pump-4               82.97           8      0.00     71.26     95.00     1.625     11.66    0.0    0.0
  

  Analysis begun on:  Fri Dec 24 16:10:23 2021
  Analysis ended on:  Fri Dec 24 16:10:26 2021
  Total elapsed time: 00:00:03