
  EPA STORM WATER MANAGEMENT MODEL - VERSION 5.1 (Build 5.3.0.dev0)
  --------------------------------------------------------------

  WARNING 04: minimum elevation drop used for Conduit WS02004404WS02004405
  WARNING 03: negative offset ignored for Link YS02001904YS02001907
  
  *********************************************************
  NOTE: The summary statistics displayed in this report are
  based on results found at every computational time step,  
  not just on results from each reporting time step.
  *********************************************************
  
  ****************
  Analysis Options
  ****************
  Flow Units ............... LPS
  Process Models:
    Rainfall/Runoff ........ YES
    RDII ................... NO
    Snowmelt ............... NO
    Groundwater ............ NO
    Flow Routing ........... YES
    Ponding Allowed ........ NO
    Water Quality .......... NO
  Infiltration Method ...... HORTON
  Flow Routing Method ...... DYNWAVE
  Surcharge Method ......... EXTRAN
  Starting Date ............ 08/28/2015 08:00:00
  Ending Date .............. 08/28/2015 15:50:00
  Antecedent Dry Days ...... 8.0
  Report Time Step ......... 00:01:00
  Wet Time Step ............ 00:01:00
  Dry Time Step ............ 00:01:00
  Routing Time Step ........ 5.00 sec
  Variable Time Step ....... YES
  Maximum Trials ........... 8
  Number of Threads ........ 4
  Head Tolerance ........... 0.001500 m
  
  
  **************************        Volume         Depth
  Runoff Quantity Continuity     hectare-m            mm
  **************************     ---------       -------
  Total Precipitation ......         1.170         2.561
  Evaporation Loss .........         0.000         0.000
  Infiltration Loss ........         0.280         0.612
  Surface Runoff ...........         0.224         0.490
  Final Storage ............         0.666         1.459
  Continuity Error (%) .....        -0.011
  
  
  **************************        Volume        Volume
  Flow Routing Continuity        hectare-m      10^6 ltr
  **************************     ---------     ---------
  Dry Weather Inflow .......         0.616         6.165
  Wet Weather Inflow .......         0.224         2.235
  Groundwater Inflow .......         0.000         0.000
  RDII Inflow ..............         0.000         0.000
  External Inflow ..........         0.102         1.024
  External Outflow .........         1.052        10.524
  Flooding Loss ............         0.000         0.000
  Evaporation Loss .........         0.000         0.000
  Exfiltration Loss ........         0.000         0.000
  Initial Stored Volume ....         0.076         0.761
  Final Stored Volume ......         0.107         1.069
  Continuity Error (%) .....       -13.827
  
  
  *************************
  Highest Continuity Errors
  *************************
  Node HS02004842 (55.42%)
  Node JK-storage (-53.73%)
  Node YS02001884 (45.97%)
  Node YS02001774 (28.55%)
  Node HS02004901 (20.65%)
  
  
  ***************************
  Time-Step Critical Elements
  ***************************
  Link WS02006252WS02006251 (82.59%)
  Link WS02006280WS02006229 (5.81%)
  Link 3 (3.76%)
  Link YS02001793JiankangQianchi (1.35%)
  Link WS02006238WS02006235 (1.19%)
  
  
  ********************************
  Highest Flow Instability Indexes
  ********************************
  Link WS02006113WS02006111 (56)
  Link WS02006111WS02006112 (10)
  Link YS02001754YS02001757 (3)
  Link YS02001767YS02001765 (2)
  Link YS02001762YS02001759 (2)
  
  
  *************************
  Routing Time Step Summary
  *************************
  Minimum Time Step           :     0.54 sec
  Average Time Step           :     1.41 sec
  Maximum Time Step           :     5.00 sec
  Percent in Steady State     :     0.00
  Average Iterations per Step :     2.01
  Percent Not Converging      :     0.01
  
  
  ***************************
  Subcatchment Runoff Summary
  ***************************
  
  ------------------------------------------------------------------------------------------------------------------------------
                            Total      Total      Total      Total     Imperv       Perv      Total       Total     Peak  Runoff
                           Precip      Runon       Evap      Infil     Runoff     Runoff     Runoff      Runoff   Runoff   Coeff
  Subcatchment                 mm         mm         mm         mm         mm         mm         mm    10^6 ltr      LPS
  ------------------------------------------------------------------------------------------------------------------------------
  sub0                       2.56       0.00       0.00       0.18       1.12       0.00       1.12        0.00     0.22   0.436
  sub1                       2.56       0.00       0.00       0.28       1.03       0.00       1.03        0.01     1.21   0.403
  sub2                       2.56       0.00       0.00       0.95       0.72       0.00       0.72        0.01     1.08   0.280
  sub3                       2.56       0.00       0.00       0.95       0.69       0.00       0.69        0.02     2.23   0.270
  sub4                       2.56       0.00       0.00       0.28       0.94       0.00       0.94        0.02     2.51   0.365
  sub5                       2.56       0.00       0.00       0.18       1.08       0.00       1.08        0.01     2.15   0.421
  sub7                       2.56       0.00       0.00       0.23       1.08       0.00       1.08        0.00     0.74   0.421
  sub8                       2.56       0.00       0.00       0.23       1.07       0.00       1.07        0.01     1.32   0.418
  sub9                       2.56       0.00       0.00       0.23       1.07       0.00       1.07        0.01     0.98   0.417
  sub10                      2.56       0.00       0.00       0.20       1.07       0.00       1.07        0.01     2.14   0.418
  sub11                      2.56       0.00       0.00       0.20       1.08       0.00       1.08        0.01     2.47   0.423
  sub12                      2.56       0.00       0.00       0.33       1.04       0.00       1.04        0.01     2.04   0.406
  sub14                      2.56       0.00       0.00       0.23       1.07       0.00       1.07        0.01     1.92   0.416
  sub15                      2.56       0.00       0.00       0.77       0.82       0.00       0.82        0.01     2.61   0.319
  sub16                      2.56       0.00       0.00       0.85       0.80       0.00       0.80        0.01     1.81   0.312
  sub17                      2.56       0.00       0.00       0.82       0.81       0.00       0.81        0.01     1.47   0.316
  sub22                      2.56       0.00       0.00       1.10       0.67       0.00       0.67        0.04     8.45   0.263
  sub23                      2.56       0.00       0.00       0.95       0.75       0.00       0.75        0.04     7.17   0.291
  sub60                      2.56       0.00       0.00       0.31       0.51       0.00       0.51        0.16    11.68   0.201
  sub61                      2.56       0.00       0.00       0.44       0.59       0.00       0.59        0.18    15.27   0.231
  sub62                      2.56       0.00       0.00       0.20       0.62       0.00       0.62        0.19    15.45   0.243
  sub63                      2.56       0.00       0.00       0.74       0.54       0.00       0.54        0.16    14.42   0.212
  sub64                      2.56       0.00       0.00       0.38       0.49       0.00       0.49        0.15    11.05   0.191
  sub65                      2.56       0.00       0.00       0.33       0.49       0.00       0.49        0.15    11.18   0.192
  sub66                      2.56       0.00       0.00       0.74       0.44       0.00       0.44        0.13    10.28   0.170
  sub67                      2.56       0.00       0.00       0.20       0.73       0.00       0.73        0.23    20.37   0.286
  sub68                      2.56       0.00       0.00       0.36       0.64       0.00       0.64        0.20    17.02   0.251
  sub69                      2.56       0.00       0.00       0.38       0.75       0.00       0.75        0.17    17.26   0.292
  sub70                      2.56       0.76       0.00       1.13       0.74       0.00       0.74        0.17    11.05   0.222
  sub71                      2.56       0.00       0.00       0.20       0.58       0.00       0.58        0.14    10.62   0.226
  sub72                      2.56       0.00       0.00       0.18       0.35       0.00       0.35        0.07     4.62   0.138
  sub73                      2.56       0.72       0.00       1.12       0.67       0.00       0.67        0.16     9.63   0.203
  sub74                      2.56       0.00       0.00       1.92       0.23       0.00       0.23        0.09     9.69   0.090
  
  
  ******************
  Node Depth Summary
  ******************
  
  ---------------------------------------------------------------------------------
                                 Average  Maximum  Maximum  Time of Max    Reported
                                   Depth    Depth      HGL   Occurrence   Max Depth
  Node                 Type       Meters   Meters   Meters  days hr:min      Meters
  ---------------------------------------------------------------------------------
  WS02001211           JUNCTION     0.65     0.76     5.60     0  06:00        0.76
  WS02001212           JUNCTION     0.37     0.46     5.53     0  06:00        0.46
  WS02001213           JUNCTION     0.58     0.69     5.45     0  06:00        0.69
  WS02003069           JUNCTION     0.36     0.44     5.03     0  04:14        0.44
  WS02003072           JUNCTION     0.43     0.51     4.88     0  04:14        0.51
  WS02003073           JUNCTION     0.25     0.31     4.37     0  04:15        0.31
  WS02003060           JUNCTION     0.33     0.40     5.33     0  04:13        0.40
  WS02003066           JUNCTION     0.17     0.23     5.78     0  03:45        0.23
  WS02003059           JUNCTION     0.64     0.73     5.42     0  06:00        0.73
  WS02003067           JUNCTION     0.45     0.58     5.90     0  03:45        0.58
  WS02004401           JUNCTION     0.50     0.65     6.65     0  03:41        0.65
  WS02004402           JUNCTION     0.54     0.68     6.64     0  03:42        0.68
  WS02004403           JUNCTION     0.57     0.71     6.64     0  03:42        0.71
  WS02004404           JUNCTION     0.64     0.79     6.64     0  03:42        0.79
  WS02004406           JUNCTION     0.66     0.80     6.63     0  03:42        0.80
  WS02004409           JUNCTION     0.32     0.46     6.23     0  03:43        0.46
  WS02004410           JUNCTION     0.35     0.49     6.21     0  03:44        0.49
  WS02004411           JUNCTION     0.37     0.51     6.19     0  03:44        0.51
  WS02004412           JUNCTION     0.39     0.53     6.17     0  03:45        0.53
  WS02004413           JUNCTION     0.55     0.70     6.17     0  03:45        0.70
  WS02004405           JUNCTION     0.64     0.78     6.63     0  03:42        0.78
  WS02006109           JUNCTION     0.56     0.72     7.34     0  03:39        0.72
  WS02006110           JUNCTION     0.58     0.73     7.31     0  03:39        0.73
  WS02006111           JUNCTION     0.15     0.21     6.92     0  03:40        0.21
  WS02006112           JUNCTION     0.65     0.81     6.70     0  03:41        0.81
  WS02006113           JUNCTION     0.22     0.32     7.22     0  03:39        0.32
  WS02006115           JUNCTION     0.39     0.53     6.67     0  03:41        0.53
  WS02006116           JUNCTION     0.47     0.62     6.66     0  03:41        0.62
  WS02006230           JUNCTION     0.47     0.66     7.40     0  03:39        0.66
  WS02006231           JUNCTION     0.31     0.45     7.57     0  03:38        0.45
  WS02006232           JUNCTION     0.43     0.59     7.63     0  03:38        0.59
  WS02006234           JUNCTION     0.32     0.50     7.65     0  03:38        0.50
  WS02006235           JUNCTION     0.35     0.53     7.69     0  03:37        0.53
  WS02006238           JUNCTION     0.37     0.55     7.69     0  03:37        0.55
  WS02006240           JUNCTION     0.26     0.43     7.72     0  03:37        0.43
  WS02006242           JUNCTION     0.31     0.49     7.75     0  03:37        0.49
  WS02006243           JUNCTION     0.19     0.35     7.77     0  03:37        0.35
  WS02006245           JUNCTION     0.20     0.34     7.83     0  03:35        0.34
  WS02006247           JUNCTION     0.23     0.37     7.87     0  03:35        0.37
  WS02006248           JUNCTION     0.18     0.32     7.90     0  03:31        0.32
  WS02006249           JUNCTION     0.23     0.36     7.96     0  03:31        0.36
  WS02006239           JUNCTION     0.32     0.50     7.71     0  03:38        0.50
  WS02006251           JUNCTION     0.21     0.35     8.02     0  03:30        0.35
  WS02006252           JUNCTION     0.20     0.32     8.56     0  03:21        0.32
  WS02006253           JUNCTION     0.24     0.37     8.02     0  03:23        0.37
  WS02006256           JUNCTION     0.69     1.10     8.04     0  00:25        1.10
  WS02004138           JUNCTION     0.15     0.19     7.44     0  01:50        0.19
  WS02004407           JUNCTION     0.15     0.21     6.53     0  03:43        0.21
  WS02006228           JUNCTION     0.54     0.71     7.36     0  03:39        0.71
  WS02006229           JUNCTION     0.50     0.68     7.37     0  03:39        0.68
  WS02006280           JUNCTION     0.04     0.07     8.34     0  02:41        0.07
  WS02006284           JUNCTION     0.32     0.37     8.77     0  02:41        0.37
  WS02006287           JUNCTION     0.05     0.10     9.05     0  02:41        0.10
  WSF200               JUNCTION     0.14     0.21     5.44     0  03:45        0.21
  HS02004901           JUNCTION     0.09     0.13     9.96     0  02:41        0.13
  HS02004881           JUNCTION     0.00     0.01     9.04     0  02:38        0.01
  HS02004876           JUNCTION     0.02     0.05     9.08     0  02:38        0.05
  HS02004870           JUNCTION     0.00     0.01     9.30     0  02:36        0.01
  HS02004862           JUNCTION     0.01     0.01     9.40     0  02:37        0.01
  HS02004856           JUNCTION     0.07     0.08     9.51     0  02:36        0.08
  HS02004852           JUNCTION     0.00     0.01     9.52     0  02:38        0.01
  HS02004848           JUNCTION     0.00     0.01     9.61     0  02:32        0.01
  HS02004842           JUNCTION     0.32     0.34     9.61     0  02:31        0.34
  HS02004837           JUNCTION     0.02     0.03     9.61     0  02:32        0.03
  HS02004830           JUNCTION     0.03     0.04     9.51     0  02:32        0.04
  HS02004824           JUNCTION     0.01     0.02     9.42     0  02:35        0.02
  HS02004817           JUNCTION     0.40     0.44     9.29     0  02:40        0.44
  HS02004807           JUNCTION     0.09     0.12     9.29     0  02:40        0.12
  HS02004802           JUNCTION     0.13     0.16     9.29     0  02:40        0.16
  HS02004799           JUNCTION     0.07     0.12     9.33     0  02:39        0.12
  HS02004792           JUNCTION     0.01     0.03     9.56     0  02:38        0.03
  HS02004788           JUNCTION     0.01     0.02     9.92     0  02:41        0.02
  HS02004785           JUNCTION     0.02     0.05     9.95     0  02:42        0.05
  HS02004777           JUNCTION     0.11     0.16     9.95     0  02:41        0.16
  HS02004770           JUNCTION     0.08     0.12     9.96     0  02:40        0.12
  HS02004480           JUNCTION     0.04     0.09     9.33     0  02:40        0.09
  HS02004479           JUNCTION     0.08     0.12     9.33     0  02:40        0.12
  HS02004478           JUNCTION     0.04     0.06     9.29     0  02:40        0.06
  YS02001745           JUNCTION     0.03     0.05     7.57     0  03:01        0.05
  YS02001748           JUNCTION     0.04     0.06     7.13     0  03:01        0.06
  YS02001751           JUNCTION     0.12     0.15     7.03     0  03:21        0.15
  YS02001754           JUNCTION     0.35     0.43     7.03     0  06:33        0.43
  YS02001762           JUNCTION     0.54     0.63     7.03     0  03:20        0.63
  YS02001765           JUNCTION     0.49     0.58     7.03     0  03:19        0.58
  YS02001767           JUNCTION     0.46     0.55     7.03     0  03:19        0.55
  YS02001770           JUNCTION     0.45     0.54     7.03     0  03:19        0.54
  YS02001774           JUNCTION     0.52     0.61     7.03     0  03:19        0.61
  YS02001779           JUNCTION     0.28     0.35     7.04     0  03:19        0.35
  YS02001882           JUNCTION     0.15     0.21     6.92     0  03:03        0.21
  YS02001884           JUNCTION     0.24     0.30     6.92     0  03:04        0.30
  YS02001759           JUNCTION     0.57     0.67     7.03     0  03:20        0.67
  YS02001887           JUNCTION     0.32     0.38     6.92     0  03:04        0.38
  YS02001890           JUNCTION     0.35     0.41     6.92     0  03:03        0.41
  YS02001898           JUNCTION     0.13     0.17     6.91     0  03:04        0.17
  YS02001901           JUNCTION     0.24     0.30     6.91     0  03:05        0.30
  YS02001904           JUNCTION     0.22     0.28     6.91     0  03:05        0.28
  YS02001907           JUNCTION     0.54     0.62     6.91     0  03:05        0.62
  YS02001910           JUNCTION     0.33     0.40     6.91     0  03:05        0.40
  YS02001915           JUNCTION     0.14     0.19     6.91     0  03:05        0.19
  YS02001918           JUNCTION     0.04     0.05     7.11     0  03:07        0.05
  YS02001619           JUNCTION     0.08     0.11     7.04     0  03:16        0.11
  YS02001629           JUNCTION     0.40     0.49     7.04     0  03:25        0.49
  YS02001641           JUNCTION     0.50     0.59     7.03     0  03:23        0.59
  YS02001644           JUNCTION     0.51     0.60     7.03     0  03:26        0.60
  YS02001652           JUNCTION     0.36     0.44     7.03     0  03:28        0.44
  YS02001655           JUNCTION     0.14     0.18     7.03     0  03:19        0.18
  YS02001920           JUNCTION     0.12     0.13     7.13     0  03:06        0.13
  YS02001923           JUNCTION     0.03     0.03     7.29     0  03:04        0.03
  YS02001926           JUNCTION     0.07     0.09     7.53     0  03:04        0.09
  YS02001929           JUNCTION     0.03     0.03     7.73     0  03:01        0.03
  YS02001658           JUNCTION     0.04     0.06     7.20     0  03:01        0.06
  YS02001661           JUNCTION     0.10     0.12     7.53     0  03:01        0.12
  YS02001664           JUNCTION     0.03     0.05     7.97     0  03:01        0.05
  YS02001622           JUNCTION     0.10     0.13     7.04     0  03:15        0.13
  YS02001633           JUNCTION     0.49     0.58     7.03     0  03:24        0.58
  YS02001649           JUNCTION     0.54     0.64     7.03     0  03:20        0.64
  YS02001757           JUNCTION     0.67     0.77     7.03     0  03:20        0.77
  YS02001895           JUNCTION     0.12     0.17     6.92     0  03:03        0.17
  YS02001625           JUNCTION     0.36     0.43     7.04     0  03:15        0.43
  YS02163301           JUNCTION     0.43     0.52     7.03     0  03:25        0.52
  YS02163601           JUNCTION     0.54     0.63     7.03     0  03:24        0.63
  YS02164001           JUNCTION     0.48     0.57     7.03     0  03:24        0.57
  YS02001647           JUNCTION     0.35     0.42     7.03     0  03:23        0.42
  YSB1154              JUNCTION     0.21     0.27     9.33     0  02:39        0.27
  YSB6556              JUNCTION     0.11     0.16     9.33     0  02:40        0.16
  YSB1174              JUNCTION     0.16     0.22     9.33     0  02:39        0.22
  YSB1171              JUNCTION     0.36     0.42     9.33     0  02:40        0.42
  YS02006553           JUNCTION     0.55     0.63     6.91     0  03:04        0.63
  YS02006561           JUNCTION     0.06     0.09     6.75     0  03:05        0.09
  YS02006556           JUNCTION     0.52     0.60     6.91     0  03:05        0.60
  YS02006558           JUNCTION     0.56     0.64     6.91     0  03:05        0.64
  YS02001783           JUNCTION     0.10     0.15     6.29     0  03:05        0.15
  YS02001784           JUNCTION     0.14     0.19     6.26     0  03:06        0.19
  YS02001786           JUNCTION     0.12     0.16     6.19     0  03:06        0.16
  YS02001788           JUNCTION     0.08     0.11     6.09     0  03:07        0.11
  YS02001790           JUNCTION     0.10     0.14     5.78     0  03:07        0.14
  YS02001791           JUNCTION     0.07     0.09     5.56     0  03:20        0.09
  YS02001793           JUNCTION     0.04     0.06     4.89     0  03:07        0.06
  WS02004139           JUNCTION     0.59     0.71     5.62     0  06:00        0.71
  WSC                  OUTFALL      0.25     0.31     0.98     0  04:16        0.31
  3                    OUTFALL      0.00     0.10     6.10     0  00:25        0.10
  4                    OUTFALL      0.00     0.00     7.00     0  00:00        0.00
  5                    OUTFALL      0.00     0.00     5.00     0  00:00        0.00
  JK-storage           STORAGE      0.09     3.00     3.80     0  00:10        3.00
  CC-storage           STORAGE      0.00     0.00     7.00     0  05:12        0.00
  XR-storage           STORAGE      1.23     5.05     3.05     0  00:11        5.05
  
  
  *******************
  Node Inflow Summary
  *******************
  
  -------------------------------------------------------------------------------------------------
                                  Maximum  Maximum                  Lateral       Total        Flow
                                  Lateral    Total  Time of Max      Inflow      Inflow     Balance
                                   Inflow   Inflow   Occurrence      Volume      Volume       Error
  Node                 Type           LPS      LPS  days hr:min    10^6 ltr    10^6 ltr     Percent
  -------------------------------------------------------------------------------------------------
  WS02001211           JUNCTION      7.35   387.66     0  02:00       0.207        7.02       0.431
  WS02001212           JUNCTION      0.00   387.64     0  02:00           0        6.99       0.276
  WS02001213           JUNCTION      0.00   387.63     0  02:00           0        6.97       0.215
  WS02003069           JUNCTION      0.32   587.66     0  04:13     0.00902        10.5       0.171
  WS02003072           JUNCTION      0.00   587.34     0  04:14           0        10.4       0.232
  WS02003073           JUNCTION      1.82   588.92     0  04:15      0.0514        10.5       0.245
  WS02003060           JUNCTION     16.53   587.16     0  04:12       0.466        10.5       0.167
  WS02003066           JUNCTION      0.00   277.33     0  03:45           0        3.09       0.077
  WS02003059           JUNCTION      0.00   387.59     0  02:00           0        6.96       0.443
  WS02003067           JUNCTION      0.00   277.35     0  03:45           0        3.09       0.190
  WS02004401           JUNCTION      0.00   285.92     0  03:41           0        3.24       0.441
  WS02004402           JUNCTION      0.00   284.85     0  03:41           0        3.23       0.434
  WS02004403           JUNCTION      0.00   284.11     0  03:41           0        3.21       0.411
  WS02004404           JUNCTION      0.16   283.74     0  03:42     0.00457         3.2       0.327
  WS02004406           JUNCTION      0.00   283.11     0  03:42           0        3.18       0.811
  WS02004409           JUNCTION      0.00   282.66     0  03:43           0        3.15       0.233
  WS02004410           JUNCTION      0.00   281.40     0  03:43           0        3.14       0.289
  WS02004411           JUNCTION      0.00   280.08     0  03:43           0        3.13       0.320
  WS02004412           JUNCTION      0.00   278.99     0  03:44           0        3.12       0.380
  WS02004413           JUNCTION      0.00   277.98     0  03:44           0        3.11       0.617
  WS02004405           JUNCTION      0.04   283.48     0  03:42     0.00107        3.19       0.493
  WS02006109           JUNCTION      1.23   289.97     0  03:39      0.0347        3.31       0.399
  WS02006110           JUNCTION      0.00   289.91     0  03:39           0         3.3       0.421
  WS02006111           JUNCTION      0.00   292.72     0  03:40           0        3.28       0.067
  WS02006112           JUNCTION      1.47   290.00     0  03:40     0.00693        3.28       0.666
  WS02006113           JUNCTION      0.00   289.71     0  03:39           0        3.28       0.139
  WS02006115           JUNCTION      0.00   288.77     0  03:40           0        3.26       0.361
  WS02006116           JUNCTION      0.00   287.17     0  03:40           0        3.25       0.314
  WS02006230           JUNCTION     10.28   268.00     0  03:38        0.29        2.92       0.230
  WS02006231           JUNCTION      0.00   257.76     0  03:38           0        2.63       0.206
  WS02006232           JUNCTION      0.00   257.82     0  03:38           0        2.64       0.346
  WS02006234           JUNCTION      0.00   257.95     0  03:37           0        2.64       0.068
  WS02006235           JUNCTION      0.00   258.07     0  03:37           0        2.68       0.206
  WS02006238           JUNCTION      0.00   167.61     0  03:24           0        1.48       0.190
  WS02006240           JUNCTION      0.00   165.70     0  03:26           0        1.45       0.174
  WS02006242           JUNCTION      0.00   164.39     0  03:31           0        1.45       0.261
  WS02006243           JUNCTION      0.00   165.06     0  03:32           0        1.44       0.134
  WS02006245           JUNCTION      0.00   165.60     0  03:23           0        1.44       0.341
  WS02006247           JUNCTION      0.00   165.82     0  03:23           0        1.44       0.132
  WS02006248           JUNCTION      0.00   166.06     0  03:22           0        1.44      -0.151
  WS02006249           JUNCTION      0.00   166.76     0  03:22           0        1.45       0.517
  WS02006239           JUNCTION      0.00   166.56     0  03:25           0        1.47       0.158
  WS02006251           JUNCTION      0.08   168.07     0  03:21     0.00217        1.47       0.151
  WS02006252           JUNCTION      0.00   164.98     0  03:21           0        1.41       0.008
  WS02006253           JUNCTION      0.22    18.53     0  05:33    0.000904      0.0578       1.948
  WS02006256           JUNCTION      0.00   300.00     0  00:20           0         1.3       0.130
  WS02004138           JUNCTION      0.00   380.00     0  01:50           0        6.84       0.056
  WS02004407           JUNCTION      0.00   282.80     0  03:42           0        3.15       0.114
  WS02006228           JUNCTION      0.00   288.87     0  03:38           0        3.28       0.272
  WS02006229           JUNCTION      0.00   288.96     0  03:38           0        3.29       0.231
  WS02006280           JUNCTION      0.00    41.12     0  02:41           0       0.382       0.020
  WS02006284           JUNCTION      0.10    41.12     0  02:41      0.0027       0.384       0.309
  WS02006287           JUNCTION      0.00    41.03     0  02:40           0       0.382       0.181
  WSF200               JUNCTION      0.00   277.31     0  03:45           0        3.08       0.061
  HS02004901           JUNCTION      1.81     1.81     0  02:25     0.00835     0.00849      26.018
  HS02004881           JUNCTION      0.74     6.05     0  02:37     0.00363      0.0377       0.197
  HS02004876           JUNCTION      1.21     5.42     0  02:35     0.00685      0.0345       1.459
  HS02004870           JUNCTION      1.32     4.24     0  02:34     0.00683      0.0278       0.367
  HS02004862           JUNCTION      1.28     2.99     0  02:35      0.0123      0.0211       0.762
  HS02004856           JUNCTION      0.98     1.73     0  02:34     0.00514      0.0102      16.227
  HS02004852           JUNCTION      0.00     0.80     0  02:36           0     0.00515       0.783
  HS02004848           JUNCTION      2.23     2.23     0  02:34      0.0156      0.0156       0.234
  HS02004842           JUNCTION      0.00     4.48     0  00:03           0      0.0235     124.329
  HS02004837           JUNCTION      8.49     9.91     0  02:30       0.191       0.201       0.404
  HS02004830           JUNCTION      0.15    10.06     0  02:32     0.00423       0.192       0.645
  HS02004824           JUNCTION      2.56    12.61     0  02:35      0.0209       0.211       0.254
  HS02004817           JUNCTION      0.60    13.21     0  02:35      0.0169       0.228       7.886
  HS02004807           JUNCTION      2.47    15.48     0  02:35      0.0126       0.224       1.921
  HS02004802           JUNCTION      0.00    15.42     0  02:38           0       0.219       1.881
  HS02004799           JUNCTION      1.92    21.92     0  02:37      0.0101       0.159       1.405
  HS02004792           JUNCTION      8.73    20.11     0  02:37      0.0504        0.15       0.282
  HS02004788           JUNCTION      4.28    12.11     0  02:40      0.0612         0.1       0.392
  HS02004785           JUNCTION      0.15     8.09     0  02:38     0.00423      0.0415       1.136
  HS02004777           JUNCTION      0.03     8.18     0  02:35    0.000846      0.0416      14.147
  HS02004770           JUNCTION      7.17     8.63     0  02:29      0.0355      0.0423       7.904
  HS02004480           JUNCTION      0.00    25.64     0  02:39           0       0.178       0.322
  HS02004479           JUNCTION      0.00     3.78     0  02:40           0      0.0312       2.380
  HS02004478           JUNCTION      0.00    41.03     0  02:40           0       0.382       0.195
  YS02001745           JUNCTION     11.68    11.68     0  03:01       0.156       0.156       0.113
  YS02001748           JUNCTION      0.04    11.72     0  03:01     0.00127       0.157       0.060
  YS02001751           JUNCTION      0.01    20.86     0  06:36     0.00031        0.18       1.048
  YS02001754           JUNCTION      0.26    64.92     0  06:35     0.00733       0.299       2.916
  YS02001762           JUNCTION      0.00    26.20     0  07:33           0       0.206       6.795
  YS02001765           JUNCTION      0.00    33.40     0  07:34           0       0.197       7.430
  YS02001767           JUNCTION      0.54    27.08     0  06:28      0.0151         0.2      10.152
  YS02001770           JUNCTION     15.60    18.74     0  03:19       0.195       0.212       7.940
  YS02001774           JUNCTION      0.00    12.93     0  07:44           0      0.0495      39.952
  YS02001779           JUNCTION      0.01    10.35     0  07:18    0.000141      0.0208      29.972
  YS02001882           JUNCTION      0.00     1.14     0  02:08           0      0.0018     145.666
  YS02001884           JUNCTION      0.00     3.49     0  02:11           0     0.00767      85.093
  YS02001759           JUNCTION     15.31    41.01     0  06:32       0.184       0.361       4.444
  YS02001887           JUNCTION     20.82    20.82     0  03:01       0.238       0.241       2.420
  YS02001890           JUNCTION      0.00    20.58     0  03:00           0       0.228       2.854
  YS02001898           JUNCTION      0.00    20.39     0  03:04           0        0.22       0.592
  YS02001901           JUNCTION      0.00    20.45     0  03:03           0        0.22       1.910
  YS02001904           JUNCTION      0.00    20.37     0  03:05           0        0.22       1.790
  YS02001907           JUNCTION      0.00    38.31     0  03:05           0       0.497       4.145
  YS02001910           JUNCTION      0.00    18.11     0  03:01           0       0.287       3.017
  YS02001915           JUNCTION     10.64    18.09     0  03:01       0.137        0.29       1.008
  YS02001918           JUNCTION      0.00     7.55     0  03:06           0       0.153       0.339
  YS02001619           JUNCTION     10.28    10.28     0  03:01       0.134       0.134       0.324
  YS02001629           JUNCTION      0.00    14.70     0  03:18           0       0.125       4.587
  YS02001641           JUNCTION      0.00    34.11     0  03:17           0       0.245       5.239
  YS02001644           JUNCTION     11.09    43.57     0  03:17        0.15       0.376       4.099
  YS02001652           JUNCTION      0.00    23.36     0  07:16           0       0.179       4.882
  YS02001655           JUNCTION      0.15    14.57     0  03:01     0.00434        0.17       1.636
  YS02001920           JUNCTION      2.87     7.55     0  03:04      0.0809       0.154       0.852
  YS02001923           JUNCTION      0.04     4.68     0  03:03     0.00106      0.0735       0.165
  YS02001926           JUNCTION      0.05     4.67     0  03:01     0.00147      0.0734       1.275
  YS02001929           JUNCTION      4.62     4.62     0  03:01       0.072       0.072       0.147
  YS02001658           JUNCTION      0.00    14.42     0  03:01           0       0.164       0.081
  YS02001661           JUNCTION      0.00    14.42     0  03:01           0       0.164       0.354
  YS02001664           JUNCTION     14.42    14.42     0  03:01       0.164       0.164       0.057
  YS02001622           JUNCTION      0.00    10.75     0  03:16           0       0.134       1.542
  YS02001633           JUNCTION     11.38    29.37     0  03:17       0.157        0.27       6.977
  YS02001649           JUNCTION      0.00    56.81     0  03:18           0       0.508       4.658
  YS02001757           JUNCTION      0.00   120.70     0  06:37           0        1.03       6.992
  YS02001895           JUNCTION      0.00    20.44     0  03:01           0       0.222       0.979
  YS02001625           JUNCTION      0.00    12.60     0  03:16           0       0.133      11.061
  YS02163301           JUNCTION      0.00    17.43     0  03:17           0       0.127      10.071
  YS02163601           JUNCTION      0.11    31.46     0  03:18      0.0031       0.251       7.973
  YS02164001           JUNCTION      0.00    33.87     0  03:17           0       0.243       4.869
  YS02001647           JUNCTION      0.00    42.00     0  03:17           0        0.35       3.298
  YSB1154              JUNCTION      2.15     2.15     0  02:28      0.0122      0.0137      11.771
  YSB6556              JUNCTION      0.00     2.18     0  01:37           0      0.0148       9.130
  YSB1174              JUNCTION      2.04     2.04     0  02:25     0.00908      0.0102      14.443
  YSB1171              JUNCTION      0.00     3.84     0  02:35           0      0.0306      25.979
  YS02006553           JUNCTION      0.00    38.38     0  03:07           0       0.484       2.739
  YS02006561           JUNCTION      0.00    55.68     0  03:05           0       0.665       0.049
  YS02006556           JUNCTION      0.00    38.43     0  03:07           0       0.485       1.930
  YS02006558           JUNCTION     17.90    55.70     0  03:04       0.222       0.687       0.572
  YS02001783           JUNCTION      0.00    55.68     0  03:05           0       0.665       0.114
  YS02001784           JUNCTION      1.06    56.72     0  03:05      0.0299       0.694       0.194
  YS02001786           JUNCTION      0.06    56.77     0  03:06     0.00159       0.694       0.200
  YS02001788           JUNCTION      0.07    56.83     0  03:06       0.002       0.695       0.103
  YS02001790           JUNCTION      0.15    56.98     0  03:07     0.00437       0.698       0.135
  YS02001791           JUNCTION      0.00    56.98     0  03:07           0       0.697       0.063
  YS02001793           JUNCTION      0.00    56.98     0  03:07           0       0.697       0.031
  WS02004139           JUNCTION      0.32   380.36     0  01:50     0.00905        6.84       0.464
  WSC                  OUTFALL       0.00   588.36     0  04:16           0        10.4       0.000
  3                    OUTFALL       0.00   159.15     0  00:25           0      0.0749       0.000
  4                    OUTFALL       0.00     0.00     0  00:00           0           0       0.000 ltr
  5                    OUTFALL       0.00     0.00     0  00:00           0           0       0.000 ltr
  JK-storage           STORAGE       0.00    57.09     0  03:20           0       0.847     -34.949
  CC-storage           STORAGE       0.00    82.49     0  03:21           0       0.844     -40.155
  XR-storage           STORAGE     219.17   219.17     0  03:01        5.89        6.49      -5.428
  
  
  **********************
  Node Surcharge Summary
  **********************
  
  No nodes were surcharged.
  
  
  *********************
  Node Flooding Summary
  *********************
  
  No nodes were flooded.
  
  
  **********************
  Storage Volume Summary
  **********************
  
  --------------------------------------------------------------------------------------------------
                         Average     Avg  Evap Exfil       Maximum     Max    Time of Max    Maximum
                          Volume    Pcnt  Pcnt  Pcnt        Volume    Pcnt     Occurrence    Outflow
  Storage Unit           1000 m3    Full  Loss  Loss       1000 m3    Full    days hr:min        LPS
  --------------------------------------------------------------------------------------------------
  JK-storage               0.005       2     0     0         0.151      52       0  00:10     300.00
  CC-storage               0.000       0     0     0         0.006       0       0  05:12     164.98
  XR-storage               0.148      16     0     0         0.606      65       0  00:11     380.00
  
  
  ***********************
  Outfall Loading Summary
  ***********************
  
  -----------------------------------------------------------
                         Flow       Avg       Max       Total
                         Freq      Flow      Flow      Volume
  Outfall Node           Pcnt       LPS       LPS    10^6 ltr
  -----------------------------------------------------------
  WSC                  100.00    411.29    588.36      10.449
  3                      7.15     67.38    159.15       0.075
  4                      0.00      0.00      0.00       0.000
  5                      0.00      0.00      0.00       0.000
  -----------------------------------------------------------
  System                26.79    478.67    588.36      10.524
  
  
  ********************
  Link Flow Summary
  ********************
  
  -----------------------------------------------------------------------------
                                 Maximum  Time of Max   Maximum    Max/    Max/
                                  |Flow|   Occurrence   |Veloc|    Full    Full
  Link                 Type          LPS  days hr:min     m/sec    Flow   Depth
  -----------------------------------------------------------------------------
  WS02003066WSF200     CONDUIT    277.31     0  03:45      2.37    0.05    0.16
  WS02006287WS02006284 CONDUIT     41.03     0  02:41      0.89    0.02    0.11
  WS02006284WS02006280 CONDUIT     41.12     0  02:41      1.15    0.02    0.09
  WS02006280WS02006229 CONDUIT     41.12     0  02:41      1.84    0.01    0.07
  WS02006229WS02006228 CONDUIT    288.87     0  03:38      0.64    0.96    0.85
  WS02006256WS02006235 CONDUIT    149.95     0  00:15      2.14    1.59    1.00
  WS02006253WS02006251 CONDUIT     22.07     0  06:27      0.27    0.07    0.51
  WS02006252WS02006251 CONDUIT    165.00     0  03:21      2.26    0.61    0.68
  WS02006251WS02006249 CONDUIT    166.76     0  03:22      0.86    0.48    0.51
  WS02006249WS02006248 CONDUIT    166.06     0  03:22      0.95    0.91    0.47
  WS02006248WS02006247 CONDUIT    165.82     0  03:23      0.92    0.36    0.48
  WS02006247WS02006245 CONDUIT    165.60     0  03:23      0.89    1.31    0.50
  WS02006245WS02006243 CONDUIT    165.06     0  03:32      0.98    0.49    0.49
  WS02006243WS02006242 CONDUIT    164.39     0  03:31      0.83    0.35    0.58
  WS02006242WS02006240 CONDUIT    165.70     0  03:26      0.73    0.66    0.65
  WS02006240WS02006239 CONDUIT    166.56     0  03:25      0.80    0.52    0.64
  WS02006239WS02006238 CONDUIT    167.61     0  03:24      0.66    0.54    0.73
  WS02006238WS02006235 CONDUIT    171.66     0  03:40      0.75    0.38    0.77
  WS02006235WS02006234 CONDUIT    257.95     0  03:37      0.90    2.72    0.71
  WS02006234WS02006232 CONDUIT    257.82     0  03:38      0.83    0.52    0.77
  WS02006232WS02006231 CONDUIT    257.76     0  03:38      0.85    0.54    0.73
  WS02006231WS02006230 CONDUIT    257.72     0  03:38      1.20    3.91    0.54
  WS02006230WS02006229 CONDUIT    267.96     0  03:38      0.79    5.96    0.92
  WS02006228WS02006109 CONDUIT    288.74     0  03:39      0.62    1.26    0.88
  WS02006116WS02004401 CONDUIT    285.92     0  03:41      0.80    0.39    0.63
  WS02006115WS02006116 CONDUIT    287.17     0  03:40      0.92    0.37    0.55
  WS02006113WS02006111 CONDUIT    292.72     0  03:40      2.00    0.35    0.33
  WS02006112WS02006115 CONDUIT    288.77     0  03:40      0.52    0.17    0.67
  WS02006111WS02006112 CONDUIT    289.77     0  03:40      1.27    0.14    0.62
  WS02006110WS02006113 CONDUIT    289.71     0  03:39      0.83    0.26    0.66
  WS02006109WS02006110 CONDUIT    289.91     0  03:39      0.65    0.56    0.84
  WS02004411WS02004412 CONDUIT    278.99     0  03:44      0.68    0.40    0.52
  WS02004401WS02004402 CONDUIT    284.85     0  03:41      0.83    0.34    0.67
  WS02004413WS02003067 CONDUIT    277.35     0  03:45      0.78    0.12    0.46
  WS02004412WS02004413 CONDUIT    277.98     0  03:44      0.55    0.19    0.61
  WS02004410WS02004411 CONDUIT    280.08     0  03:43      0.72    0.38    0.50
  WS02004409WS02004410 CONDUIT    281.40     0  03:43      0.77    0.36    0.48
  WS02004407WS02004409 CONDUIT    282.66     0  03:43      1.21    0.10    0.34
  WS02004406WS02004407 CONDUIT    282.80     0  03:42      0.71    0.13    0.51
  WS02004405WS02004406 CONDUIT    283.11     0  03:42      0.77    0.56    0.79
  WS02004404WS02004405 CONDUIT    283.44     0  03:42      0.96    2.78    0.78
  WS02004403WS02004404 CONDUIT    283.57     0  03:42      0.85    0.20    0.75
  WS02004402WS02004403 CONDUIT    284.11     0  03:41      0.85    0.41    0.70
  WS02004139WS02001211 CONDUIT    380.31     0  02:00      0.69    0.48    0.57
  WS02004138WS02004139 CONDUIT    380.04     0  01:50      2.95    0.08    0.43
  WS02003067WS02003066 CONDUIT    277.33     0  03:45      0.83    0.09    0.34
  WS02001213WS02003059 CONDUIT    387.59     0  02:00      0.68    0.64    0.70
  WS02001212WS02001213 CONDUIT    387.63     0  02:00      1.32    0.60    0.41
  WS02001211WS02001212 CONDUIT    387.64     0  02:00      0.78    0.30    0.61
  WS02003072WS02003073 CONDUIT    587.10     0  04:15      1.47    1.27    0.38
  WS02003069WS02003072 CONDUIT    587.34     0  04:14      1.40    0.28    0.40
  WS02003060WS02003069 CONDUIT    587.34     0  04:13      1.67    0.23    0.35
  WS02003059WS02003060 CONDUIT    387.53     0  02:01      0.94    0.25    0.56
  HS02004901HS02004770 CONDUIT      1.59     0  02:34      0.02    0.01    0.18
  HS02004876HS02004881 CONDUIT      5.38     0  02:38      0.20    0.06    0.04
  HS02004870HS02004876 CONDUIT      4.24     0  02:36      0.14    0.00    0.04
  HS02004842HS02004848 CONDUIT      1.45     0  02:39      0.01    0.00    0.25
  HS02004837HS02004842 CONDUIT      4.48     0  00:03      0.42    0.00    0.26
  HS02004830HS02004837 CONDUIT      9.91     0  02:32      0.30    0.01    0.05
  HS02004824HS02004830 CONDUIT     10.06     0  02:33      0.35    0.01    0.04
  HS02004817HS02004824 CONDUIT     12.61     0  02:35      0.17    0.01    0.33
  HS02004770HS02004777 CONDUIT      8.15     0  02:35      0.06    0.01    0.20
  HS02004799HS02004480 CONDUIT     21.88     0  02:38      0.22    0.03    0.14
  HS02004792HS02004799 CONDUIT     20.10     0  02:38      0.26    0.01    0.11
  HS02004788HS02004792 CONDUIT     12.10     0  02:41      0.44    0.01    0.04
  HS02004785HS02004788 CONDUIT      8.04     0  02:42      0.21    0.06    0.05
  HS02004777HS02004785 CONDUIT      7.94     0  02:38      0.08    0.01    0.15
  HS02004480HS02004478 CONDUIT     25.61     0  02:40      0.44    0.11    0.08
  HS02004479HS02004480 CONDUIT      3.80     0  02:43      0.15    0.00    0.15
  HS02004862HS02004870 CONDUIT      2.98     0  02:37      0.22    0.00    0.02
  HS02004848HS02004852 CONDUIT      0.80     0  02:36      0.12    0.00    0.01
  HS02004856HS02004862 CONDUIT      1.72     0  02:36      0.14    0.00    0.02
  HS02004852HS02004856 CONDUIT      0.79     0  02:38      0.02    0.00    0.06
  HS02004802HS02004478 CONDUIT     15.41     0  02:40      0.14    0.01    0.16
  HS02004478WS02006287 CONDUIT     41.03     0  02:40      0.62    0.01    0.07
  HS02004817HS02004807 CONDUIT     13.17     0  02:40      0.05    0.01    0.40
  HS02004807HS02004802 CONDUIT     15.42     0  02:38      0.19    0.03    0.19
  YS02001759YS02001757 CONDUIT     36.82     0  03:22      0.12    0.03    0.72
  YS02001762YS02001759 CONDUIT     35.54     0  06:32      0.17    0.04    0.65
  YS02001765YS02001762 CONDUIT     26.20     0  07:33      0.21    0.02    0.61
  YS02001770YS02001767 CONDUIT     22.13     0  06:31      0.24    0.09    0.54
  YS02001774YS02001770 CONDUIT     12.93     0  07:44      0.13    0.01    0.56
  YS02001779YS02001774 CONDUIT     10.35     0  07:18      0.03    0.01    0.48
  YS02001649YS02001757 CONDUIT     54.32     0  03:17      0.09    0.03    0.71
  YS02001767YS02001765 CONDUIT     33.40     0  07:34      0.26    0.04    0.56
  YS02006561YS02001783 CONDUIT     55.68     0  03:05      1.14    0.03    0.15
  YS02001783YS02001784 CONDUIT     55.66     0  03:05      0.71    0.08    0.21
  YS02001784YS02001785 CONDUIT     56.71     0  03:06      0.70    0.13    0.22
  YS02001788YS02001790 CONDUIT     56.83     0  03:07      1.15    0.04    0.15
  YS02001790YS02001791 CONDUIT     56.98     0  03:07      1.31    0.06    0.14
  YS02001791YS02001793 CONDUIT     56.98     0  03:07      2.56    0.02    0.10
  YS02001910YS02001907 CONDUIT     18.03     0  03:07      0.49    0.01    0.51
  YS02001786YS02001788 CONDUIT     56.76     0  03:06      1.00    0.11    0.17
  YS02001915YS02001910 CONDUIT     18.11     0  03:01      0.44    0.01    0.30
  YS02001918YS02001915 CONDUIT      7.54     0  03:07      0.44    0.00    0.12
  YS02001923YS02001920 CONDUIT      4.68     0  03:04      0.16    0.00    0.08
  YS02001926YS02001923 CONDUIT      4.65     0  03:03      0.24    0.01    0.06
  YS02001929YS02001926 CONDUIT      4.62     0  03:01      0.23    0.00    0.06
  YS02001920YS02001918 CONDUIT      7.55     0  03:06      0.23    0.01    0.09
  YS02001629YS02163301 CONDUIT     17.43     0  03:17      0.06    0.02    0.50
  YS02001619YS02001622 CONDUIT     10.75     0  03:16      0.39    0.02    0.12
  YS02001622YS02001625 CONDUIT     12.60     0  03:16      0.15    0.01    0.28
  YS02001625YS02001629 CONDUIT     14.70     0  03:18      0.09    0.01    0.27
  YS02163301YS02001633 CONDUIT     20.03     0  07:22      0.05    0.02    0.55
  YS02163601YS02164001 CONDUIT     33.87     0  03:17      0.07    0.03    0.60
  YS02164001YS02001641 CONDUIT     34.11     0  03:17      0.07    0.05    0.58
  YS02001641YS02001644 CONDUIT     33.24     0  03:17      0.08    0.11    0.60
  YS02001647YS02001649 CONDUIT     41.49     0  03:16      0.11    0.02    0.53
  YS02006553YS02006556 CONDUIT     38.43     0  03:07      0.18    0.03    0.59
  YS02006556YS02006558 CONDUIT     38.44     0  03:07      0.08    0.03    0.62
  YSB6556YSB1171       CONDUIT      2.18     0  01:37      0.03    0.00    0.41
  YS02001907YS02006553 CONDUIT     38.38     0  03:07      0.06    0.05    0.68
  YS02006558YS02006561 CONDUIT     55.68     0  03:05      1.42    0.12    0.20
  YS02001633YS02163601 CONDUIT     31.35     0  03:18      0.06    0.03    0.60
  YS02001644YS02001647 CONDUIT     42.00     0  03:17      0.11    0.02    0.51
  YS02001745YS02001748 CONDUIT     11.67     0  03:01      0.83    0.00    0.05
  YS02001748YS02001751 CONDUIT     11.76     0  03:01      0.70    0.01    0.10
  YS02001751YS02001754 CONDUIT     28.17     0  06:28      0.67    0.01    0.26
  YS02001754YS02001757 CONDUIT     54.94     0  06:37      0.33    0.02    0.60
  YS02001882YS02001884 CONDUIT      1.14     0  02:08      0.06    0.00    0.22
  YS02001884YS02001887 CONDUIT      3.49     0  02:11      0.04    0.00    0.32
  YS02001890YS02001895 CONDUIT     20.44     0  03:01      0.11    0.01    0.29
  YS02001895YS02001898 CONDUIT     20.39     0  03:04      0.31    0.04    0.16
  YS02001898YS02001901 CONDUIT     20.45     0  03:03      0.14    0.01    0.24
  YS02001901YS02001904 CONDUIT     20.37     0  03:05      0.18    0.03    0.29
  YS02001904YS02001907 CONDUIT     20.39     0  03:05      0.06    0.01    0.45
  YS02001887YS02001890 CONDUIT     20.58     0  03:00      0.10    0.04    0.37
  YS02001652YS02001649 CONDUIT     21.64     0  07:26      0.22    0.01    0.54
  YS02001655YS02001652 CONDUIT     16.09     0  03:11      0.71    0.01    0.29
  YS02001658YS02001655 CONDUIT     14.42     0  03:01      0.79    0.01    0.12
  YS02001661YS02001658 CONDUIT     14.42     0  03:01      0.85    0.01    0.05
  YS02001664YS02001661 CONDUIT     14.42     0  03:01      0.44    0.00    0.09
  YSB1154YSB6556       CONDUIT      2.12     0  02:31      0.19    0.00    0.30
  YSB1174YSB1171       CONDUIT      2.01     0  02:26      0.02    0.00    0.42
  YSB1171HS02004479    CONDUIT      3.78     0  02:40      0.54    0.00    0.31
  HS02004881HS02006253 CONDUIT      6.05     0  02:38      0.80    0.00    0.03
  YS02001793JiankangQianchi CONDUIT     57.09     0  03:20      7.91    0.00    0.50
  YS02001757CaochengTiaoxuchi CONDUIT     82.49     0  03:21      0.30    0.04    0.39
  WSF200WS02003060     CONDUIT    277.42     0  03:46      1.36    0.06    0.24
  1                    CONDUIT    588.36     0  04:16      2.87    0.20    0.31
  2                    CONDUIT      0.00     0  00:00      0.00    0.00    0.00
  3                    CONDUIT    159.15     0  00:25      7.36    0.25    0.34
  4                    CONDUIT      0.00     0  00:00      0.00    0.00    0.00
  CC-Pump-1            PUMP       111.53     0  05:15              0.56
  CC-Pump-2            PUMP        82.49     0  03:21              0.41
  JK-Pump-1            PUMP       149.77     0  00:25              0.50
  JK-Pump-2            PUMP       299.88     0  00:20              1.00
  XR-Pump-1            PUMP        95.00     0  00:00              1.00
  XR-Pump-2            PUMP        95.00     0  01:00              1.00
  XR-Pump-3            PUMP        95.00     0  00:00              1.00
  XR-Pump-4            PUMP        95.00     0  00:50              1.00
  
  
  ***************************
  Flow Classification Summary
  ***************************
  
  -------------------------------------------------------------------------------------
                      Adjusted    ---------- Fraction of Time in Flow Class ---------- 
                       /Actual         Up    Down  Sub   Sup   Up    Down  Norm  Inlet 
  Conduit               Length    Dry  Dry   Dry   Crit  Crit  Crit  Crit  Ltd   Ctrl  
  -------------------------------------------------------------------------------------
  WS02003066WSF200        1.00   0.07  0.01  0.00  0.00  0.92  0.00  0.00  0.82  0.00
  WS02006287WS02006284    1.00   0.06  0.02  0.00  0.87  0.04  0.00  0.00  0.81  0.00
  WS02006284WS02006280    1.00   0.07  0.00  0.00  0.00  0.00  0.00  0.93  0.00  0.00
  WS02006280WS02006229    1.00   0.07  0.00  0.00  0.00  0.00  0.00  0.93  0.00  0.00
  WS02006229WS02006228    1.00   0.00  0.00  0.00  1.00  0.00  0.00  0.00  0.00  0.00
  WS02006256WS02006235    1.00   0.01  0.00  0.00  0.99  0.00  0.00  0.00  0.00  0.00
  WS02006253WS02006251    1.00   0.04  0.02  0.00  0.93  0.00  0.00  0.00  0.00  0.00
  WS02006252WS02006251    1.00   0.17  0.00  0.00  0.00  0.00  0.83  0.00  0.00  0.00
  WS02006251WS02006249    1.00   0.00  0.00  0.00  1.00  0.00  0.00  0.00  0.42  0.00
  WS02006249WS02006248    1.00   0.00  0.01  0.00  0.75  0.00  0.24  0.00  0.00  0.00
  WS02006248WS02006247    1.00   0.01  0.00  0.00  0.96  0.00  0.00  0.03  0.36  0.00
  WS02006247WS02006245    1.00   0.01  0.00  0.00  0.97  0.00  0.00  0.03  0.00  0.00
  WS02006245WS02006243    1.00   0.01  0.00  0.00  0.90  0.00  0.00  0.09  0.06  0.00
  WS02006243WS02006242    1.00   0.01  0.01  0.00  0.98  0.00  0.00  0.00  0.47  0.00
  WS02006242WS02006240    1.00   0.01  0.00  0.00  0.99  0.00  0.00  0.00  0.00  0.00
  WS02006240WS02006239    1.00   0.01  0.00  0.00  0.92  0.00  0.00  0.07  0.02  0.00
  WS02006239WS02006238    1.00   0.01  0.00  0.00  0.99  0.00  0.00  0.00  0.00  0.00
  WS02006238WS02006235    1.00   0.01  0.00  0.00  0.99  0.00  0.00  0.00  0.00  0.00
  WS02006235WS02006234    1.00   0.01  0.00  0.00  0.92  0.00  0.07  0.00  0.00  0.00
  WS02006234WS02006232    1.00   0.01  0.00  0.00  0.99  0.00  0.00  0.00  0.05  0.00
  WS02006232WS02006231    1.00   0.01  0.00  0.00  0.99  0.00  0.00  0.00  0.00  0.00
  WS02006231WS02006230    1.00   0.01  0.00  0.00  0.00  0.00  0.99  0.00  0.00  0.00
  WS02006230WS02006229    1.00   0.00  0.00  0.00  0.99  0.00  0.00  0.01  0.01  0.00
  WS02006228WS02006109    1.00   0.00  0.00  0.00  1.00  0.00  0.00  0.00  0.00  0.00
  WS02006116WS02004401    1.00   0.04  0.00  0.00  0.96  0.00  0.00  0.00  0.00  0.00
  WS02006115WS02006116    1.00   0.04  0.00  0.00  0.95  0.00  0.00  0.01  0.00  0.00
  WS02006113WS02006111    1.00   0.02  0.00  0.00  0.00  0.98  0.00  0.00  0.16  0.00
  WS02006112WS02006115    1.00   0.03  0.01  0.00  0.95  0.00  0.01  0.00  0.00  0.00
  WS02006111WS02006112    1.00   0.03  0.00  0.00  0.96  0.01  0.00  0.01  0.95  0.00
  WS02006110WS02006113    1.00   0.00  0.02  0.00  0.98  0.00  0.00  0.00  0.00  0.00
  WS02006109WS02006110    1.00   0.00  0.00  0.00  0.99  0.00  0.00  0.00  0.00  0.00
  WS02004411WS02004412    1.00   0.06  0.00  0.00  0.94  0.00  0.00  0.00  0.00  0.00
  WS02004401WS02004402    1.00   0.04  0.00  0.00  0.96  0.00  0.00  0.00  0.00  0.00
  WS02004413WS02003067    1.00   0.06  0.02  0.00  0.00  0.00  0.93  0.00  0.00  0.00
  WS02004412WS02004413    1.00   0.06  0.00  0.00  0.94  0.00  0.00  0.00  0.01  0.00
  WS02004410WS02004411    1.00   0.06  0.00  0.00  0.94  0.00  0.00  0.00  0.01  0.00
  WS02004409WS02004410    1.00   0.06  0.00  0.00  0.94  0.00  0.00  0.00  0.03  0.00
  WS02004407WS02004409    1.00   0.06  0.00  0.00  0.94  0.00  0.00  0.00  0.91  0.00
  WS02004406WS02004407    1.00   0.00  0.06  0.00  0.94  0.00  0.00  0.00  0.00  0.00
  WS02004405WS02004406    1.00   0.00  0.00  0.00  1.00  0.00  0.00  0.00  0.03  0.00
  WS02004404WS02004405    1.00   0.00  0.00  0.00  1.00  0.00  0.00  0.00  0.00  0.00
  WS02004403WS02004404    1.00   0.00  0.05  0.00  0.95  0.00  0.00  0.00  0.00  0.00
  WS02004402WS02004403    1.00   0.05  0.00  0.00  0.95  0.00  0.00  0.00  0.00  0.00
  WS02004139WS02001211    1.00   0.00  0.00  0.00  1.00  0.00  0.00  0.00  0.00  0.00
  WS02004138WS02004139    1.00   0.00  0.00  0.00  1.00  0.00  0.00  0.00  1.00  0.00
  WS02003067WS02003066    1.00   0.07  0.01  0.00  0.92  0.00  0.00  0.00  0.00  0.00
  WS02001213WS02003059    1.00   0.00  0.00  0.00  1.00  0.00  0.00  0.00  0.00  0.00
  WS02001212WS02001213    1.00   0.00  0.00  0.00  0.32  0.00  0.68  0.00  0.00  0.00
  WS02001211WS02001212    1.00   0.00  0.00  0.00  1.00  0.00  0.00  0.00  0.00  0.00
  WS02003072WS02003073    1.00   0.00  0.00  0.00  0.00  0.00  0.00  1.00  0.00  0.00
  WS02003069WS02003072    1.00   0.00  0.00  0.00  1.00  0.00  0.00  0.00  0.51  0.00
  WS02003060WS02003069    1.00   0.00  0.00  0.00  1.00  0.00  0.00  0.00  0.18  0.00
  WS02003059WS02003060    1.00   0.00  0.00  0.00  1.00  0.00  0.00  0.00  0.01  0.00
  HS02004901HS02004770    1.00   0.07  0.00  0.00  0.93  0.00  0.00  0.00  0.04  0.00
  HS02004876HS02004881    1.00   0.01  0.00  0.00  0.99  0.00  0.00  0.00  0.00  0.00
  HS02004870HS02004876    1.00   0.00  0.00  0.00  0.99  0.00  0.00  0.00  0.95  0.00
  HS02004842HS02004848    1.00   0.00  0.07  0.00  0.93  0.00  0.00  0.00  0.79  0.00
  HS02004837HS02004842    1.00   0.00  0.00  0.00  1.00  0.00  0.00  0.00  0.11  0.00
  HS02004830HS02004837    1.00   0.00  0.00  0.00  1.00  0.00  0.00  0.00  0.99  0.00
  HS02004824HS02004830    1.00   0.00  0.00  0.00  1.00  0.00  0.00  0.00  0.00  0.00
  HS02004817HS02004824    1.00   0.00  0.00  0.00  1.00  0.00  0.00  0.00  1.00  0.00
  HS02004770HS02004777    1.00   0.00  0.07  0.00  0.93  0.00  0.00  0.00  0.08  0.00
  HS02004799HS02004480    1.00   0.00  0.02  0.00  0.91  0.00  0.08  0.00  0.00  0.00
  HS02004792HS02004799    1.00   0.00  0.00  0.00  1.00  0.00  0.00  0.00  0.98  0.00
  HS02004788HS02004792    1.00   0.00  0.00  0.00  1.00  0.00  0.00  0.00  0.98  0.00
  HS02004785HS02004788    1.00   0.00  0.00  0.00  1.00  0.00  0.00  0.00  0.00  0.00
  HS02004777HS02004785    1.00   0.00  0.00  0.00  1.00  0.00  0.00  0.00  0.23  0.00
  HS02004480HS02004478    1.00   0.08  0.00  0.00  0.86  0.00  0.00  0.06  0.00  0.00
  HS02004479HS02004480    1.00   0.02  0.00  0.00  0.98  0.00  0.00  0.00  0.17  0.00
  HS02004862HS02004870    1.00   0.00  0.00  0.00  1.00  0.00  0.00  0.00  0.06  0.00
  HS02004848HS02004852    1.00   0.07  0.00  0.00  0.93  0.00  0.00  0.00  0.67  0.00
  HS02004856HS02004862    1.00   0.00  0.12  0.00  0.88  0.00  0.00  0.00  0.71  0.00
  HS02004852HS02004856    1.00   0.07  0.02  0.00  0.91  0.00  0.00  0.00  0.81  0.00
  HS02004802HS02004478    1.00   0.07  0.01  0.00  0.92  0.00  0.00  0.00  0.00  0.00
  HS02004478WS02006287    1.00   0.09  0.00  0.00  0.91  0.00  0.00  0.00  0.81  0.00
  HS02004817HS02004807    1.00   0.00  0.07  0.00  0.93  0.00  0.00  0.00  0.00  0.00
  HS02004807HS02004802    1.00   0.07  0.00  0.00  0.93  0.00  0.00  0.00  0.01  0.00
  YS02001759YS02001757    1.00   0.00  0.00  0.00  1.00  0.00  0.00  0.00  0.17  0.00
  YS02001762YS02001759    1.00   0.00  0.00  0.00  1.00  0.00  0.00  0.00  0.06  0.00
  YS02001765YS02001762    1.00   0.00  0.00  0.00  1.00  0.00  0.00  0.00  0.25  0.00
  YS02001770YS02001767    1.00   0.00  0.00  0.00  1.00  0.00  0.00  0.00  0.00  0.00
  YS02001774YS02001770    1.00   0.00  0.09  0.00  0.91  0.00  0.00  0.00  0.06  0.00
  YS02001779YS02001774    1.00   0.00  0.00  0.00  1.00  0.00  0.00  0.00  0.31  0.00
  YS02001649YS02001757    1.00   0.00  0.00  0.00  1.00  0.00  0.00  0.00  0.20  0.00
  YS02001767YS02001765    1.00   0.00  0.00  0.00  1.00  0.00  0.00  0.00  0.01  0.00
  YS02006561YS02001783    1.00   0.12  0.00  0.00  0.00  0.88  0.00  0.00  0.70  0.00
  YS02001783YS02001784    1.00   0.00  0.12  0.00  0.88  0.00  0.00  0.00  0.55  0.00
  YS02001784YS02001785    1.00   0.00  0.00  0.00  1.00  0.00  0.00  0.00  0.28  0.00
  YS02001788YS02001790    1.00   0.00  0.00  0.00  0.12  0.88  0.00  0.00  1.00  0.00
  YS02001790YS02001791    1.00   0.00  0.00  0.00  0.00  1.00  0.00  0.00  0.00  0.00
  YS02001791YS02001793    1.00   0.00  0.00  0.00  0.00  1.00  0.00  0.00  0.00  0.00
  YS02001910YS02001907    1.00   0.00  0.00  0.00  0.99  0.00  0.00  0.01  0.13  0.00
  YS02001786YS02001788    1.00   0.00  0.00  0.00  0.70  0.30  0.00  0.00  0.00  0.00
  YS02001915YS02001910    1.00   0.00  0.00  0.00  1.00  0.00  0.00  0.00  0.27  0.00
  YS02001918YS02001915    1.00   0.00  0.00  0.00  0.99  0.00  0.00  0.00  0.78  0.00
  YS02001923YS02001920    1.00   0.00  0.00  0.00  1.00  0.00  0.00  0.00  1.00  0.00
  YS02001926YS02001923    1.00   0.00  0.05  0.00  0.00  0.00  0.95  0.00  0.00  0.00
  YS02001929YS02001926    1.00   0.00  0.07  0.00  0.93  0.00  0.00  0.00  0.86  0.00
  YS02001920YS02001918    1.00   0.00  0.00  0.00  1.00  0.00  0.00  0.00  0.00  0.00
  YS02001629YS02163301    1.00   0.10  0.01  0.00  0.89  0.00  0.00  0.00  0.00  0.00
  YS02001619YS02001622    1.00   0.07  0.00  0.00  0.93  0.00  0.00  0.00  0.00  0.00
  YS02001622YS02001625    1.00   0.07  0.00  0.00  0.93  0.00  0.00  0.00  0.17  0.00
  YS02001625YS02001629    1.00   0.07  0.05  0.00  0.84  0.00  0.04  0.00  0.00  0.00
  YS02163301YS02001633    1.00   0.00  0.10  0.00  0.90  0.00  0.00  0.00  0.00  0.00
  YS02163601YS02164001    1.00   0.00  0.06  0.00  0.94  0.00  0.00  0.00  0.00  0.00
  YS02164001YS02001641    1.00   0.00  0.05  0.00  0.94  0.00  0.00  0.00  0.07  0.00
  YS02001641YS02001644    1.00   0.00  0.00  0.00  1.00  0.00  0.00  0.00  0.00  0.00
  YS02001647YS02001649    1.00   0.00  0.12  0.00  0.88  0.00  0.00  0.00  0.01  0.00
  YS02006553YS02006556    1.00   0.00  0.00  0.00  1.00  0.00  0.00  0.00  0.03  0.00
  YS02006556YS02006558    1.00   0.00  0.00  0.00  1.00  0.00  0.00  0.00  0.00  0.00
  YSB6556YSB1171          1.00   0.02  0.05  0.00  0.93  0.00  0.00  0.00  0.00  0.00
  YS02001907YS02006553    1.00   0.00  0.01  0.00  0.99  0.00  0.00  0.00  0.00  0.00
  YS02006558YS02006561    1.00   0.12  0.00  0.00  0.00  0.88  0.00  0.00  0.48  0.00
  YS02001633YS02163601    1.00   0.00  0.00  0.00  1.00  0.00  0.00  0.00  0.21  0.00
  YS02001644YS02001647    1.00   0.00  0.12  0.00  0.88  0.00  0.00  0.00  0.00  0.00
  YS02001745YS02001748    1.00   0.00  0.00  0.00  0.00  0.00  0.00  1.00  0.00  0.00
  YS02001748YS02001751    1.00   0.00  0.00  0.00  0.94  0.06  0.00  0.00  0.86  0.00
  YS02001751YS02001754    1.00   0.00  0.00  0.00  0.87  0.00  0.00  0.13  0.06  0.00
  YS02001754YS02001757    1.00   0.00  0.00  0.00  1.00  0.00  0.00  0.00  0.30  0.00
  YS02001882YS02001884    1.00   0.10  0.01  0.00  0.90  0.00  0.00  0.00  0.00  0.00
  YS02001884YS02001887    1.00   0.05  0.02  0.00  0.94  0.00  0.00  0.00  0.00  0.00
  YS02001890YS02001895    1.00   0.00  0.11  0.00  0.89  0.00  0.00  0.00  0.00  0.00
  YS02001895YS02001898    1.00   0.11  0.00  0.00  0.88  0.00  0.01  0.00  0.00  0.00
  YS02001898YS02001901    1.00   0.10  0.01  0.00  0.89  0.00  0.00  0.00  0.02  0.00
  YS02001901YS02001904    1.00   0.10  0.00  0.00  0.90  0.00  0.00  0.00  0.00  0.00
  YS02001904YS02001907    1.00   0.00  0.10  0.00  0.90  0.00  0.00  0.00  0.00  0.00
  YS02001887YS02001890    1.00   0.00  0.00  0.00  0.99  0.00  0.01  0.00  0.00  0.00
  YS02001652YS02001649    1.00   0.00  0.00  0.00  1.00  0.00  0.00  0.00  0.30  0.00
  YS02001655YS02001652    1.00   0.00  0.00  0.00  0.87  0.00  0.00  0.13  0.06  0.00
  YS02001658YS02001655    1.00   0.00  0.09  0.00  0.85  0.06  0.00  0.00  0.78  0.00
  YS02001661YS02001658    1.00   0.09  0.00  0.00  0.00  0.91  0.00  0.00  0.73  0.00
  YS02001664YS02001661    1.00   0.07  0.00  0.00  0.93  0.00  0.00  0.00  0.86  0.00
  YSB1154YSB6556          1.00   0.07  0.00  0.00  0.93  0.00  0.00  0.00  0.02  0.00
  YSB1174YSB1171          1.00   0.04  0.02  0.00  0.94  0.00  0.00  0.00  0.00  0.00
  YSB1171HS02004479       1.00   0.02  0.00  0.00  0.95  0.00  0.00  0.02  0.14  0.00
  HS02004881HS02006253    1.00   0.04  0.00  0.00  0.08  0.02  0.00  0.86  0.05  0.00
  YS02001793JiankangQianchi    1.00   0.00  0.00  0.00  0.10  0.90  0.00  0.00  0.12  0.00
  YS02001757CaochengTiaoxuchi    1.00   0.00  0.17  0.00  0.83  0.00  0.00  0.00  0.00  0.00
  WSF200WS02003060        1.00   0.00  0.07  0.00  0.91  0.02  0.00  0.00  0.79  0.00
  1                       1.00   0.00  0.00  0.00  0.00  1.00  0.00  0.00  0.36  0.00
  2                       1.00   1.00  0.00  0.00  0.00  0.00  0.00  0.00  0.00  0.00
  3                       1.00   0.93  0.00  0.00  0.00  0.07  0.00  0.00  0.70  0.00
  4                       1.00   1.00  0.00  0.00  0.00  0.00  0.00  0.00  0.00  0.00
  
  
  *************************
  Conduit Surcharge Summary
  *************************
  
  ----------------------------------------------------------------------------
                                                           Hours        Hours 
                         --------- Hours Full --------   Above Full   Capacity
  Conduit                Both Ends  Upstream  Dnstream   Normal Flow   Limited
  ----------------------------------------------------------------------------
  WS02006256WS02006235        4.42      4.43      7.33      1.08         0.01
  WS02006247WS02006245        0.01      0.01      0.01      0.90         0.01
  WS02006235WS02006234        0.01      0.01      0.01      4.26         0.01
  WS02006231WS02006230        0.01      0.01      0.01      4.94         0.01
  WS02006230WS02006229        0.01      0.01      0.01      5.51         0.01
  WS02006228WS02006109        0.01      0.01      0.01      0.78         0.01
  WS02004404WS02004405        0.01      0.01      0.01      4.66         0.01
  WS02003072WS02003073        0.01      0.01      0.01      1.63         0.01
  YS02001793JiankangQianchi        0.01      0.01      0.35      0.01         0.01
  
  
  ***************
  Pumping Summary
  ***************
  
  ---------------------------------------------------------------------------------------------------------
                                                  Min       Avg       Max     Total     Power    % Time Off
                        Percent   Number of      Flow      Flow      Flow    Volume     Usage    Pump Curve
  Pump                 Utilized   Start-Ups       LPS       LPS       LPS  10^6 ltr     Kw-hr    Low   High
  ---------------------------------------------------------------------------------------------------------
  CC-Pump-1               55.35           8      0.00     51.63    111.53     0.753      3.06    0.0  100.0
  CC-Pump-2               48.99           8      0.00     50.60     82.49     0.658      2.69    0.0  100.0
  JK-Pump-1               80.84           5      0.00     34.19    149.77     0.589     11.05    0.0    0.0
  JK-Pump-2               78.70           8      0.00     42.27    299.88     0.714     12.80    0.0    0.0
  XR-Pump-1               80.85           5      0.00     72.38     95.00     1.625     33.38    0.0    0.0
  XR-Pump-2               82.96           5      0.00     67.17     95.00     1.653     36.26    0.0    0.0
  XR-Pump-3               87.21           6      0.00     81.35     95.00     1.938     40.92    0.0    0.0
  XR-Pump-4               82.96           5      0.00     69.62     95.00     1.624     36.33    0.0    0.0
  

  Analysis begun on:  Fri Dec 24 16:16:35 2021
  Analysis ended on:  Fri Dec 24 16:16:37 2021
  Total elapsed time: 00:00:02