
  EPA STORM WATER MANAGEMENT MODEL - VERSION 5.1 (Build 5.3.0.dev0)
  --------------------------------------------------------------

  WARNING 04: minimum elevation drop used for Conduit WS02004404WS02004405
  WARNING 03: negative offset ignored for Link YS02001904YS02001907
  
  *********************************************************
  NOTE: The summary statistics displayed in this report are
  based on results found at every computational time step,  
  not just on results from each reporting time step.
  *********************************************************
  
  ****************
  Analysis Options
  ****************
  Flow Units ............... LPS
  Process Models:
    Rainfall/Runoff ........ YES
    RDII ................... NO
    Snowmelt ............... NO
    Groundwater ............ NO
    Flow Routing ........... YES
    Ponding Allowed ........ NO
    Water Quality .......... NO
  Infiltration Method ...... HORTON
  Flow Routing Method ...... DYNWAVE
  Surcharge Method ......... EXTRAN
  Starting Date ............ 08/28/2015 08:00:00
  Ending Date .............. 08/28/2015 15:50:00
  Antecedent Dry Days ...... 8.0
  Report Time Step ......... 00:01:00
  Wet Time Step ............ 00:01:00
  Dry Time Step ............ 00:01:00
  Routing Time Step ........ 5.00 sec
  Variable Time Step ....... YES
  Maximum Trials ........... 8
  Number of Threads ........ 4
  Head Tolerance ........... 0.001500 m
  
  
  **************************        Volume         Depth
  Runoff Quantity Continuity     hectare-m            mm
  **************************     ---------       -------
  Total Precipitation ......         2.730         5.977
  Evaporation Loss .........         0.000         0.000
  Infiltration Loss ........         0.686         1.502
  Surface Runoff ...........         1.157         2.533
  Final Storage ............         0.888         1.943
  Continuity Error (%) .....        -0.018
  
  
  **************************        Volume        Volume
  Flow Routing Continuity        hectare-m      10^6 ltr
  **************************     ---------     ---------
  Dry Weather Inflow .......         0.616         6.165
  Wet Weather Inflow .......         1.156        11.561
  Groundwater Inflow .......         0.000         0.000
  RDII Inflow ..............         0.000         0.000
  External Inflow ..........         0.102         1.024
  External Outflow .........         1.695        16.952
  Flooding Loss ............         0.084         0.840
  Evaporation Loss .........         0.000         0.000
  Exfiltration Loss ........         0.000         0.000
  Initial Stored Volume ....         0.076         0.761
  Final Stored Volume ......         0.299         2.986
  Continuity Error (%) .....        -6.502
  
  
  *************************
  Highest Continuity Errors
  *************************
  Node JK-storage (-34.03%)
  Node HS02004842 (28.20%)
  Node YS02001884 (22.63%)
  Node YS02001774 (16.54%)
  Node YSB1171 (6.87%)
  
  
  ***************************
  Time-Step Critical Elements
  ***************************
  Link WS02006252WS02006251 (45.06%)
  Link 3 (41.88%)
  Link WS02006238WS02006235 (5.65%)
  Link WS02006280WS02006229 (2.03%)
  
  
  ********************************
  Highest Flow Instability Indexes
  ********************************
  Link WS02006113WS02006111 (40)
  Link WS02006111WS02006112 (20)
  Link YS02006558YS02006561 (12)
  Link WS02006110WS02006113 (3)
  Link YS02163301YS02001633 (3)
  
  
  *************************
  Routing Time Step Summary
  *************************
  Minimum Time Step           :     0.12 sec
  Average Time Step           :     0.88 sec
  Maximum Time Step           :     5.00 sec
  Percent in Steady State     :    -0.00
  Average Iterations per Step :     2.07
  Percent Not Converging      :     0.72
  
  
  ***************************
  Subcatchment Runoff Summary
  ***************************
  
  ------------------------------------------------------------------------------------------------------------------------------
                            Total      Total      Total      Total     Imperv       Perv      Total       Total     Peak  Runoff
                           Precip      Runon       Evap      Infil     Runoff     Runoff     Runoff      Runoff   Runoff   Coeff
  Subcatchment                 mm         mm         mm         mm         mm         mm         mm    10^6 ltr      LPS
  ------------------------------------------------------------------------------------------------------------------------------
  sub0                       5.98       0.00       0.00       0.42       4.29       0.00       4.29        0.00     1.44   0.718
  sub1                       5.98       0.00       0.00       0.66       4.06       0.00       4.06        0.03     7.56   0.680
  sub2                       5.98       0.00       0.00       2.21       2.86       0.00       2.86        0.03     6.69   0.478
  sub3                       5.98       0.00       0.00       2.21       2.82       0.00       2.82        0.06    13.77   0.473
  sub4                       5.98       0.00       0.00       0.66       3.93       0.00       3.93        0.08    15.47   0.657
  sub5                       5.98       0.00       0.00       0.42       4.25       0.00       4.25        0.05    13.44   0.711
  sub7                       5.98       0.00       0.00       0.54       4.18       0.00       4.18        0.01     4.74   0.700
  sub8                       5.98       0.00       0.00       0.54       4.18       0.00       4.18        0.03     8.36   0.699
  sub9                       5.98       0.00       0.00       0.54       4.17       0.00       4.17        0.02     6.20   0.698
  sub10                      5.98       0.00       0.00       0.48       4.21       0.00       4.21        0.05    13.42   0.704
  sub11                      5.98       0.00       0.00       0.48       4.22       0.00       4.22        0.05    15.74   0.707
  sub12                      5.98       0.00       0.00       0.78       4.01       0.00       4.01        0.04    13.33   0.671
  sub14                      5.98       0.00       0.00       0.54       4.17       0.00       4.17        0.04    12.12   0.698
  sub15                      5.98       0.00       0.00       1.79       3.21       0.00       3.21        0.06    16.44   0.536
  sub16                      5.98       0.00       0.00       1.97       3.09       0.00       3.09        0.03    11.72   0.516
  sub17                      5.98       0.00       0.00       1.91       3.13       0.00       3.13        0.03     9.46   0.524
  sub22                      5.98       0.00       0.00       2.57       2.62       0.00       2.62        0.17    53.85   0.438
  sub23                      5.98       0.00       0.00       2.21       2.90       0.00       2.90        0.14    45.85   0.484
  sub60                      5.98       0.00       0.00       0.72       2.82       0.00       2.82        0.86    79.65   0.472
  sub61                      5.98       0.00       0.00       1.02       3.02       0.00       3.02        0.93    99.61   0.505
  sub62                      5.98       0.00       0.00       0.48       3.23       0.00       3.23        0.99   101.90   0.541
  sub63                      5.98       0.00       0.00       1.73       2.69       0.00       2.69        0.81    92.85   0.450
  sub64                      5.98       0.00       0.00       0.90       2.70       0.00       2.70        0.82    75.64   0.451
  sub65                      5.98       0.00       0.00       0.78       2.73       0.00       2.73        0.84    76.74   0.457
  sub66                      5.98       0.00       0.00       1.73       2.35       0.00       2.35        0.72    69.31   0.394
  sub67                      5.98       0.00       0.00       0.48       3.56       0.00       3.56        1.10   130.42   0.595
  sub68                      5.98       0.00       0.00       0.84       3.21       0.00       3.21        0.99   110.04   0.537
  sub69                      5.98       0.00       0.00       0.90       3.46       0.00       3.46        0.81   108.95   0.580
  sub70                      5.98       3.54       0.00       3.23       4.25       0.00       4.25        0.97    88.31   0.447
  sub71                      5.98       0.00       0.00       0.48       3.09       0.00       3.09        0.73    71.22   0.518
  sub72                      5.98       0.00       0.00       0.42       2.18       0.00       2.18        0.44    33.53   0.365
  sub73                      5.98       4.14       0.00       3.44       4.33       0.00       4.33        1.02    75.82   0.428
  sub74                      5.98       0.00       0.00       4.48       1.04       0.00       1.04        0.42    60.72   0.175
  
  
  ******************
  Node Depth Summary
  ******************
  
  ---------------------------------------------------------------------------------
                                 Average  Maximum  Maximum  Time of Max    Reported
                                   Depth    Depth      HGL   Occurrence   Max Depth
  Node                 Type       Meters   Meters   Meters  days hr:min      Meters
  ---------------------------------------------------------------------------------
  WS02001211           JUNCTION     0.65     0.78     5.62     0  02:50        0.78
  WS02001212           JUNCTION     0.38     0.49     5.56     0  02:51        0.49
  WS02001213           JUNCTION     0.61     0.74     5.50     0  02:51        0.74
  WS02003069           JUNCTION     0.44     0.56     5.14     0  02:52        0.56
  WS02003072           JUNCTION     0.50     0.62     4.99     0  02:53        0.62
  WS02003073           JUNCTION     0.30     0.38     4.44     0  02:54        0.38
  WS02003060           JUNCTION     0.39     0.49     5.43     0  02:52        0.49
  WS02003066           JUNCTION     0.24     0.29     5.85     0  02:37        0.29
  WS02003059           JUNCTION     0.67     0.79     5.48     0  02:52        0.79
  WS02003067           JUNCTION     0.58     0.70     6.02     0  02:36        0.70
  WS02004401           JUNCTION     0.68     0.85     6.85     0  02:33        0.85
  WS02004402           JUNCTION     0.71     0.87     6.83     0  02:33        0.87
  WS02004403           JUNCTION     0.73     0.89     6.82     0  02:33        0.89
  WS02004404           JUNCTION     0.80     0.96     6.81     0  02:33        0.96
  WS02004406           JUNCTION     0.81     0.95     6.78     0  02:33        0.95
  WS02004409           JUNCTION     0.50     0.66     6.43     0  02:36        0.66
  WS02004410           JUNCTION     0.52     0.67     6.39     0  02:36        0.67
  WS02004411           JUNCTION     0.53     0.68     6.36     0  02:36        0.68
  WS02004412           JUNCTION     0.55     0.69     6.33     0  02:36        0.69
  WS02004413           JUNCTION     0.71     0.85     6.32     0  02:37        0.85
  WS02004405           JUNCTION     0.80     0.95     6.80     0  02:33        0.95
  WS02006109           JUNCTION     0.76     0.97     7.59     0  02:28        0.97
  WS02006110           JUNCTION     0.76     0.92     7.51     0  02:28        0.92
  WS02006111           JUNCTION     0.22     0.29     6.99     0  02:29        0.29
  WS02006112           JUNCTION     0.85     1.04     6.92     0  02:33        1.04
  WS02006113           JUNCTION     0.34     0.45     7.35     0  02:29        0.45
  WS02006115           JUNCTION     0.57     0.75     6.88     0  02:32        0.74
  WS02006116           JUNCTION     0.65     0.82     6.86     0  02:32        0.82
  WS02006230           JUNCTION     0.74     1.02     7.76     0  02:28        1.02
  WS02006231           JUNCTION     0.49     0.69     7.81     0  02:28        0.69
  WS02006232           JUNCTION     0.63     0.82     7.85     0  02:28        0.81
  WS02006234           JUNCTION     0.56     0.75     7.91     0  02:28        0.75
  WS02006235           JUNCTION     0.59     0.78     7.95     0  02:28        0.78
  WS02006238           JUNCTION     0.62     0.81     7.95     0  02:27        0.81
  WS02006240           JUNCTION     0.52     0.72     8.01     0  02:27        0.72
  WS02006242           JUNCTION     0.58     0.78     8.05     0  03:40        0.78
  WS02006243           JUNCTION     0.46     0.67     8.09     0  03:40        0.67
  WS02006245           JUNCTION     0.44     0.64     8.13     0  03:41        0.64
  WS02006247           JUNCTION     0.46     0.65     8.15     0  03:41        0.65
  WS02006248           JUNCTION     0.41     0.59     8.18     0  03:41        0.59
  WS02006249           JUNCTION     0.44     0.60     8.20     0  03:41        0.60
  WS02006239           JUNCTION     0.58     0.78     7.98     0  02:27        0.77
  WS02006251           JUNCTION     0.43     0.62     8.29     0  03:42        0.62
  WS02006252           JUNCTION     0.39     0.59     8.83     0  03:30        0.58
  WS02006253           JUNCTION     0.46     0.65     8.29     0  03:42        0.65
  WS02006256           JUNCTION     1.03     1.21     8.14     0  03:40        1.21
  WS02004138           JUNCTION     0.15     0.19     7.44     0  00:40        0.19
  WS02004407           JUNCTION     0.23     0.29     6.61     0  02:34        0.29
  WS02006228           JUNCTION     0.76     1.01     7.66     0  02:28        1.01
  WS02006229           JUNCTION     0.74     1.01     7.70     0  02:28        1.01
  WS02006280           JUNCTION     0.05     0.15     8.42     0  02:18        0.15
  WS02006284           JUNCTION     0.35     0.48     8.88     0  02:18        0.48
  WS02006287           JUNCTION     0.08     0.21     9.17     0  02:18        0.21
  WSF200               JUNCTION     0.22     0.31     5.54     0  02:36        0.31
  HS02004901           JUNCTION     0.11     0.23    10.05     0  02:16        0.23
  HS02004881           JUNCTION     0.01     0.02     9.05     0  02:18        0.02
  HS02004876           JUNCTION     0.03     0.10     9.13     0  02:16        0.10
  HS02004870           JUNCTION     0.01     0.04     9.33     0  02:18        0.04
  HS02004862           JUNCTION     0.01     0.05     9.43     0  02:19        0.05
  HS02004856           JUNCTION     0.07     0.10     9.53     0  02:18        0.10
  HS02004852           JUNCTION     0.01     0.03     9.54     0  02:20        0.03
  HS02004848           JUNCTION     0.01     0.03     9.63     0  02:18        0.03
  HS02004842           JUNCTION     0.33     0.36     9.63     0  02:18        0.36
  HS02004837           JUNCTION     0.03     0.05     9.63     0  02:18        0.05
  HS02004830           JUNCTION     0.04     0.06     9.53     0  02:18        0.06
  HS02004824           JUNCTION     0.02     0.04     9.44     0  02:21        0.04
  HS02004817           JUNCTION     0.42     0.53     9.37     0  02:19        0.53
  HS02004807           JUNCTION     0.11     0.20     9.37     0  02:19        0.20
  HS02004802           JUNCTION     0.15     0.24     9.37     0  02:18        0.24
  HS02004799           JUNCTION     0.10     0.26     9.47     0  02:16        0.26
  HS02004792           JUNCTION     0.02     0.10     9.62     0  02:16        0.10
  HS02004788           JUNCTION     0.02     0.07     9.97     0  02:17        0.07
  HS02004785           JUNCTION     0.03     0.14    10.04     0  02:16        0.14
  HS02004777           JUNCTION     0.13     0.25    10.05     0  02:16        0.25
  HS02004770           JUNCTION     0.10     0.22    10.05     0  02:16        0.22
  HS02004480           JUNCTION     0.06     0.20     9.44     0  02:17        0.20
  HS02004479           JUNCTION     0.10     0.24     9.44     0  02:17        0.24
  HS02004478           JUNCTION     0.05     0.13     9.36     0  02:18        0.13
  YS02001745           JUNCTION     0.08     0.12     7.64     0  03:01        0.12
  YS02001748           JUNCTION     0.33     0.47     7.55     0  04:27        0.47
  YS02001751           JUNCTION     0.51     0.67     7.55     0  04:27        0.66
  YS02001754           JUNCTION     0.76     0.95     7.55     0  04:28        0.94
  YS02001762           JUNCTION     0.96     1.14     7.54     0  04:26        1.14
  YS02001765           JUNCTION     0.91     1.09     7.54     0  04:26        1.09
  YS02001767           JUNCTION     0.87     1.05     7.54     0  04:26        1.05
  YS02001770           JUNCTION     0.87     1.05     7.54     0  04:29        1.04
  YS02001774           JUNCTION     0.93     1.12     7.54     0  04:29        1.12
  YS02001779           JUNCTION     0.69     0.86     7.54     0  04:25        0.85
  YS02001882           JUNCTION     0.29     0.47     7.18     0  02:54        0.47
  YS02001884           JUNCTION     0.38     0.56     7.18     0  02:54        0.56
  YS02001759           JUNCTION     0.99     1.18     7.54     0  04:26        1.17
  YS02001887           JUNCTION     0.46     0.64     7.18     0  02:54        0.64
  YS02001890           JUNCTION     0.49     0.67     7.18     0  02:55        0.67
  YS02001898           JUNCTION     0.26     0.43     7.16     0  02:55        0.43
  YS02001901           JUNCTION     0.38     0.55     7.16     0  02:55        0.55
  YS02001904           JUNCTION     0.36     0.53     7.16     0  02:56        0.53
  YS02001907           JUNCTION     0.68     0.87     7.16     0  02:55        0.87
  YS02001910           JUNCTION     0.47     0.66     7.16     0  02:55        0.66
  YS02001915           JUNCTION     0.27     0.44     7.16     0  02:56        0.44
  YS02001918           JUNCTION     0.08     0.10     7.16     0  03:03        0.10
  YS02001619           JUNCTION     0.47     0.63     7.56     0  04:30        0.63
  YS02001629           JUNCTION     0.82     1.00     7.55     0  04:29        1.00
  YS02001641           JUNCTION     0.92     1.21     7.65     0  03:26        1.13
  YS02001644           JUNCTION     0.93     1.19     7.62     0  03:26        1.13
  YS02001652           JUNCTION     0.77     0.96     7.56     0  04:25        0.95
  YS02001655           JUNCTION     0.54     0.71     7.56     0  04:26        0.69
  YS02001920           JUNCTION     0.17     0.21     7.22     0  03:02        0.21
  YS02001923           JUNCTION     0.06     0.09     7.35     0  03:02        0.09
  YS02001926           JUNCTION     0.14     0.18     7.62     0  03:01        0.18
  YS02001929           JUNCTION     0.07     0.09     7.78     0  03:01        0.09
  YS02001658           JUNCTION     0.27     0.41     7.56     0  04:27        0.41
  YS02001661           JUNCTION     0.14     0.20     7.60     0  02:46        0.20
  YS02001664           JUNCTION     0.07     0.12     8.04     0  02:46        0.12
  YS02001622           JUNCTION     0.49     0.64     7.54     0  04:29        0.64
  YS02001633           JUNCTION     0.91     1.15     7.61     0  03:26        1.11
  YS02001649           JUNCTION     0.96     1.15     7.54     0  04:27        1.15
  YS02001757           JUNCTION     1.09     1.28     7.54     0  04:26        1.28
  YS02001895           JUNCTION     0.25     0.43     7.17     0  02:55        0.43
  YS02001625           JUNCTION     0.77     0.95     7.56     0  04:29        0.93
  YS02163301           JUNCTION     0.85     1.07     7.59     0  03:33        1.04
  YS02163601           JUNCTION     0.96     1.25     7.65     0  03:26        1.17
  YS02164001           JUNCTION     0.90     1.20     7.66     0  03:26        1.11
  YS02001647           JUNCTION     0.76     0.95     7.56     0  04:29        0.95
  YSB1154              JUNCTION     0.24     0.39     9.44     0  02:17        0.39
  YSB6556              JUNCTION     0.13     0.27     9.44     0  02:17        0.27
  YSB1174              JUNCTION     0.19     0.33     9.44     0  02:17        0.33
  YSB1171              JUNCTION     0.39     0.54     9.44     0  02:16        0.54
  YS02006553           JUNCTION     0.69     0.88     7.16     0  02:55        0.88
  YS02006561           JUNCTION     0.14     0.23     6.89     0  02:56        0.23
  YS02006556           JUNCTION     0.66     0.85     7.16     0  02:56        0.85
  YS02006558           JUNCTION     0.71     0.89     7.16     0  02:56        0.89
  YS02001783           JUNCTION     0.24     0.41     6.55     0  02:56        0.41
  YS02001784           JUNCTION     0.28     0.44     6.51     0  02:56        0.44
  YS02001786           JUNCTION     0.24     0.37     6.40     0  02:56        0.37
  YS02001788           JUNCTION     0.17     0.28     6.26     0  02:56        0.28
  YS02001790           JUNCTION     0.21     0.34     5.99     0  02:56        0.34
  YS02001791           JUNCTION     0.14     0.22     5.69     0  02:56        0.22
  YS02001793           JUNCTION     0.08     0.14     4.97     0  02:39        0.14
  WS02004139           JUNCTION     0.59     0.72     5.63     0  02:50        0.72
  WSC                  OUTFALL      0.30     0.38     1.05     0  02:54        0.38
  3                    OUTFALL      0.08     0.20     6.20     0  03:40        0.20
  4                    OUTFALL      0.03     0.10     7.10     0  03:41        0.10
  5                    OUTFALL      0.00     0.00     5.00     0  00:00        0.00
  JK-storage           STORAGE      0.40     3.66     4.46     0  03:15        3.66
  CC-storage           STORAGE      0.33     0.51     7.51     0  04:27        0.51
  XR-storage           STORAGE      7.27     7.72     5.72     0  02:23        7.72
  
  
  *******************
  Node Inflow Summary
  *******************
  
  -------------------------------------------------------------------------------------------------
                                  Maximum  Maximum                  Lateral       Total        Flow
                                  Lateral    Total  Time of Max      Inflow      Inflow     Balance
                                   Inflow   Inflow   Occurrence      Volume      Volume       Error
  Node                 Type           LPS      LPS  days hr:min    10^6 ltr    10^6 ltr     Percent
  -------------------------------------------------------------------------------------------------
  WS02001211           JUNCTION      7.35   382.41     0  07:20       0.207        6.33       0.621
  WS02001212           JUNCTION      0.00   379.27     0  07:21           0        6.29       0.330
  WS02001213           JUNCTION      0.00   378.80     0  07:21           0        6.27       0.386
  WS02003069           JUNCTION      0.32   874.34     0  02:52     0.00902        13.9       0.233
  WS02003072           JUNCTION      0.00   873.86     0  02:53           0        13.8       0.281
  WS02003073           JUNCTION      1.82   875.36     0  02:53      0.0514        13.9       0.325
  WS02003060           JUNCTION     16.53   874.32     0  02:52       0.466        13.9       0.218
  WS02003066           JUNCTION      0.00   524.41     0  02:37           0        7.24       0.063
  WS02003059           JUNCTION      0.00   379.38     0  07:22           0        6.25       0.670
  WS02003067           JUNCTION      0.00   524.40     0  02:37           0        7.25       0.132
  WS02004401           JUNCTION      0.00   532.55     0  02:31           0        7.48       0.278
  WS02004402           JUNCTION      0.00   531.64     0  02:32           0        7.46       0.264
  WS02004403           JUNCTION      0.00   531.16     0  02:33           0        7.44       0.241
  WS02004404           JUNCTION      0.16   531.16     0  02:33     0.00457        7.43       0.182
  WS02004406           JUNCTION      0.00   531.37     0  02:33           0        7.39       0.446
  WS02004409           JUNCTION      0.00   530.74     0  02:34           0        7.35       0.224
  WS02004410           JUNCTION      0.00   527.98     0  02:34           0        7.34       0.255
  WS02004411           JUNCTION      0.00   526.01     0  02:35           0        7.32       0.263
  WS02004412           JUNCTION      0.00   524.78     0  02:35           0         7.3       0.285
  WS02004413           JUNCTION      0.00   524.50     0  02:37           0        7.28       0.421
  WS02004405           JUNCTION      0.04   531.21     0  02:33     0.00107        7.41       0.274
  WS02006109           JUNCTION      1.23   537.87     0  02:28      0.0347        7.57       0.239
  WS02006110           JUNCTION      0.00   537.88     0  02:28           0        7.55       0.257
  WS02006111           JUNCTION      0.00   558.81     0  02:29           0        7.52       0.046
  WS02006112           JUNCTION      9.46   550.44     0  02:29      0.0268        7.55       0.381
  WS02006113           JUNCTION      0.00   538.02     0  02:29           0        7.53       0.119
  WS02006115           JUNCTION      0.00   544.08     0  02:29           0        7.52       0.262
  WS02006116           JUNCTION      0.00   535.90     0  02:30           0         7.5       0.233
  WS02006230           JUNCTION     10.28   399.59     0  03:40        0.29        6.65       0.166
  WS02006231           JUNCTION      0.00   389.53     0  03:40           0        6.37       0.156
  WS02006232           JUNCTION      0.00   389.52     0  03:40           0        6.38       0.223
  WS02006234           JUNCTION      0.00   389.66     0  03:40           0        6.39       0.100
  WS02006235           JUNCTION      0.00   389.66     0  03:40           0        6.43       0.149
  WS02006238           JUNCTION      0.00   331.90     0  03:30           0        4.57       0.138
  WS02006240           JUNCTION      0.00   334.39     0  03:30           0        4.56       0.224
  WS02006242           JUNCTION      0.00   336.21     0  03:31           0        4.56       0.290
  WS02006243           JUNCTION      0.00   338.07     0  02:23           0        4.55      -0.214
  WS02006245           JUNCTION      0.00   347.26     0  02:23           0        4.55       0.250
  WS02006247           JUNCTION      0.00   354.17     0  02:22           0        4.56       0.147
  WS02006248           JUNCTION      0.00   359.84     0  02:22           0        4.56       0.058
  WS02006249           JUNCTION      0.00   407.11     0  03:32           0        5.01       0.238
  WS02006239           JUNCTION      0.00   333.22     0  03:30           0        4.56       0.209
  WS02006251           JUNCTION      0.08   407.02     0  03:32     0.00217        5.06       0.174
  WS02006252           JUNCTION      0.00   400.00     0  03:30           0        4.87       0.009
  WS02006253           JUNCTION      1.44    46.55     0  02:20     0.00347        0.19       2.038
  WS02006256           JUNCTION      0.00   600.00     0  03:40           0        4.59       0.044
  WS02004138           JUNCTION      0.00   379.99     0  04:00           0        6.16       0.058
  WS02004407           JUNCTION      0.00   530.92     0  02:34           0        7.36       0.097
  WS02006228           JUNCTION      0.00   536.63     0  02:28           0        7.55       0.166
  WS02006229           JUNCTION      0.00   536.61     0  02:28           0        7.56       0.162
  WS02006280           JUNCTION      0.00   215.21     0  02:18           0        0.92       0.008
  WS02006284           JUNCTION      0.10   215.20     0  02:18      0.0027       0.921       0.116
  WS02006287           JUNCTION      0.00   215.09     0  02:18           0       0.919       0.079
  WSF200               JUNCTION      0.00   524.43     0  02:37           0        7.23       0.057
  HS02004901           JUNCTION     11.72    11.72     0  02:10      0.0323      0.0324       5.728
  HS02004881           JUNCTION      4.74    40.91     0  02:17      0.0141       0.148       0.191
  HS02004876           JUNCTION      7.56    36.49     0  02:18       0.027       0.135       0.394
  HS02004870           JUNCTION      8.36    29.08     0  02:18      0.0267       0.108       0.099
  HS02004862           JUNCTION      6.89    21.26     0  02:18      0.0323      0.0813       0.208
  HS02004856           JUNCTION      6.20    14.42     0  02:18      0.0201      0.0505       2.942
  HS02004852           JUNCTION      0.00     8.60     0  02:18           0      0.0305       0.167
  HS02004848           JUNCTION     13.77    13.77     0  02:21      0.0636      0.0636       0.069
  HS02004842           JUNCTION      0.00     5.64     0  02:31           0      0.0461      39.276
  HS02004837           JUNCTION     19.77    24.54     0  02:17       0.225       0.259       0.313
  HS02004830           JUNCTION      0.15    24.67     0  02:18     0.00423       0.249       0.497
  HS02004824           JUNCTION     15.52    40.00     0  02:21      0.0833       0.331       0.163
  HS02004817           JUNCTION      0.60    40.59     0  02:21      0.0169       0.347       5.039
  HS02004807           JUNCTION     15.74    54.93     0  02:19       0.049        0.38       1.125
  HS02004802           JUNCTION      0.00    55.25     0  02:21           0       0.375       1.091
  HS02004799           JUNCTION     12.12   136.59     0  02:15      0.0397       0.479       0.477
  HS02004792           JUNCTION     54.13   124.71     0  02:15       0.173        0.44       0.093
  HS02004788           JUNCTION     18.11    72.62     0  02:16       0.102       0.268       0.146
  HS02004785           JUNCTION      0.15    54.87     0  02:15     0.00423       0.168       0.289
  HS02004777           JUNCTION      0.03    55.20     0  02:14    0.000846       0.168       3.181
  HS02004770           JUNCTION     45.85    56.33     0  02:12       0.138       0.169       1.870
  HS02004480           JUNCTION      0.00   161.08     0  02:17           0       0.559       0.131
  HS02004479           JUNCTION      0.00    24.97     0  02:18           0      0.0926       0.794
  HS02004478           JUNCTION      0.00   215.08     0  02:18           0        0.92       0.068
  YS02001745           JUNCTION     79.65    79.65     0  03:01       0.855       0.855       0.100
  YS02001748           JUNCTION      0.04    79.69     0  03:01     0.00127       0.857       0.138
  YS02001751           JUNCTION      0.01   135.67     0  03:30     0.00031       0.856       0.971
  YS02001754           JUNCTION      0.26    94.98     0  03:41     0.00733       0.854       1.801
  YS02001762           JUNCTION      0.00   129.20     0  02:40           0        0.95       2.006
  YS02001765           JUNCTION      0.00   124.20     0  02:37           0       0.949       2.210
  YS02001767           JUNCTION      0.54   122.63     0  02:56      0.0151       0.963       3.134
  YS02001770           JUNCTION    102.05   124.95     0  02:55       0.998        1.05       2.404
  YS02001774           JUNCTION      0.00    44.95     0  02:15           0       0.128      19.818
  YS02001779           JUNCTION      0.01    22.71     0  02:56    0.000141      0.0554      20.406
  YS02001882           JUNCTION      0.00     4.20     0  02:10           0     0.00544      45.196
  YS02001884           JUNCTION      0.00    11.86     0  02:07           0      0.0217      29.243
  YS02001759           JUNCTION     99.65   211.44     0  02:55       0.931        1.85       1.145
  YS02001887           JUNCTION    130.87   130.87     0  02:44        1.11        1.12       0.646
  YS02001890           JUNCTION      0.00   130.31     0  02:42           0         1.1       0.724
  YS02001898           JUNCTION      0.00   129.91     0  02:47           0        1.08       0.206
  YS02001901           JUNCTION      0.00   129.69     0  02:47           0        1.08       0.515
  YS02001904           JUNCTION      0.00   129.05     0  02:47           0        1.08       0.479
  YS02001907           JUNCTION      0.00   235.15     0  02:57           0        2.32       0.962
  YS02001910           JUNCTION      0.00   107.92     0  03:01           0        1.25       0.824
  YS02001915           JUNCTION     71.24   107.34     0  03:01       0.731        1.25       0.368
  YS02001918           JUNCTION      0.00    36.38     0  03:02           0       0.523       0.220
  YS02001619           JUNCTION     69.31    69.31     0  03:01       0.721       0.721       0.462
  YS02001629           JUNCTION      0.00    96.14     0  03:23           0       0.685       1.853
  YS02001641           JUNCTION      0.00   155.33     0  03:03           0        1.46       1.210
  YS02001644           JUNCTION     75.68   231.51     0  03:05        0.82        2.26       0.973
  YS02001652           JUNCTION      0.00   123.61     0  02:59           0       0.809       1.896
  YS02001655           JUNCTION      0.15   149.83     0  03:22     0.00434        0.82       1.184
  YS02001920           JUNCTION      2.87    36.40     0  03:02      0.0809       0.525       0.395
  YS02001923           JUNCTION      0.04    33.53     0  03:01     0.00106       0.445       0.069
  YS02001926           JUNCTION      0.05    33.57     0  03:01     0.00147       0.446       0.494
  YS02001929           JUNCTION     33.53    33.53     0  03:01       0.445       0.445       0.068
  YS02001658           JUNCTION      0.00    92.84     0  02:46           0       0.817       0.157
  YS02001661           JUNCTION      0.00    92.85     0  02:46           0       0.813       0.082
  YS02001664           JUNCTION     92.85    92.85     0  02:46       0.813       0.813       0.021
  YS02001622           JUNCTION      0.00    86.66     0  03:05           0       0.718       1.463
  YS02001633           JUNCTION     76.94   161.22     0  03:00       0.844        1.51       1.696
  YS02001649           JUNCTION      0.00   328.02     0  03:06           0           3       1.091
  YS02001757           JUNCTION      0.00   579.88     0  03:00           0        5.59       1.617
  YS02001895           JUNCTION      0.00   129.97     0  02:46           0        1.09       0.347
  YS02001625           JUNCTION      0.00    85.82     0  03:07           0       0.708       3.694
  YS02163301           JUNCTION      0.00    99.26     0  03:28           0       0.683       2.728
  YS02163601           JUNCTION      0.11   154.35     0  02:53      0.0031        1.48       1.792
  YS02164001           JUNCTION      0.00   156.11     0  02:53           0        1.46       1.073
  YS02001647           JUNCTION      0.00   233.19     0  03:02           0        2.22       0.892
  YSB1154              JUNCTION     13.44    13.44     0  02:15      0.0481      0.0494       3.008
  YSB6556              JUNCTION      0.00    13.43     0  02:17           0      0.0504       2.533
  YSB1174              JUNCTION     13.33    13.33     0  02:09       0.035      0.0361       3.689
  YSB1171              JUNCTION      0.00    24.94     0  02:16           0      0.0921       7.372
  YS02006553           JUNCTION      0.00   235.60     0  03:02           0        2.31       0.624
  YS02006561           JUNCTION      0.00   348.94     0  02:56           0        3.27       0.020
  YS02006556           JUNCTION      0.00   236.01     0  03:02           0        2.31       0.450
  YS02006558           JUNCTION    110.92   345.00     0  02:56        1.01         3.3       0.138
  YS02001783           JUNCTION      0.00   344.98     0  02:56           0        3.27       0.048
  YS02001784           JUNCTION      1.06   346.05     0  02:56      0.0299         3.3       0.078
  YS02001786           JUNCTION      0.06   346.08     0  02:56     0.00159         3.3       0.076
  YS02001788           JUNCTION      0.07   346.14     0  02:57       0.002         3.3       0.044
  YS02001790           JUNCTION      0.15   346.29     0  02:56     0.00437         3.3       0.055
  YS02001791           JUNCTION      0.00   346.28     0  02:56           0         3.3       0.028
  YS02001793           JUNCTION      0.00   346.28     0  02:56           0         3.3       0.007
  WS02004139           JUNCTION      0.32   379.83     0  00:40     0.00905        6.16       0.606
  WSC                  OUTFALL       0.00   874.87     0  02:54           0        13.8       0.000
  3                    OUTFALL       0.00   506.51     0  03:40           0         2.7       0.000
  4                    OUTFALL       0.00   108.78     0  03:41           0       0.438       0.000
  5                    OUTFALL       0.00     0.00     0  00:00           0           0       0.000 ltr
  JK-storage           STORAGE       0.00   346.28     0  02:56           0        3.45     -25.390
  CC-storage           STORAGE       0.00   580.07     0  03:00           0         5.5      -0.604
  XR-storage           STORAGE     328.89   328.89     0  02:57        7.07        7.67      -0.003
  
  
  **********************
  Node Surcharge Summary
  **********************
  
  Surcharging occurs when water rises above the top of the highest conduit.
  ---------------------------------------------------------------------
                                               Max. Height   Min. Depth
                                   Hours       Above Crown    Below Rim
  Node                 Type      Surcharged         Meters       Meters
  ---------------------------------------------------------------------
  WS02006109           JUNCTION        2.05          0.152        1.668
  WS02006110           JUNCTION        0.12          0.013        1.837
  WS02006112           JUNCTION        0.29          0.040        1.640
  WS02006232           JUNCTION        2.46          0.115        1.365
  WS02006234           JUNCTION        0.13          0.033        1.207
  WS02006235           JUNCTION        1.09          0.073        1.217
  WS02006238           JUNCTION        1.67          0.090        1.340
  WS02006240           JUNCTION        0.03          0.007        1.383
  WS02006242           JUNCTION        1.16          0.050        0.770
  WS02006239           JUNCTION        0.55          0.035        1.255
  WS02006252           JUNCTION        2.68          0.187        0.913
  WS02006228           JUNCTION        1.83          0.181        2.019
  YS02001762           JUNCTION        3.88          0.143        1.007
  YS02001765           JUNCTION        3.47          0.093        1.007
  YS02001767           JUNCTION        1.83          0.053        0.977
  YS02001770           JUNCTION        0.21          0.016        0.904
  YS02001774           JUNCTION        3.76          0.118        0.932
  YS02001759           JUNCTION        4.20          0.179        1.031
  YS02001641           JUNCTION        3.68          0.213        0.887
  YS02001644           JUNCTION        3.71          0.185        0.735
  YS02001633           JUNCTION        2.64          0.134        0.926
  YS02001649           JUNCTION        3.96          0.152        0.898
  YS02001757           JUNCTION        5.21          0.282        0.928
  YS02163301           JUNCTION        0.50          0.075        0.955
  YS02163601           JUNCTION        3.92          0.247        0.833
  YS02164001           JUNCTION        3.36          0.200        0.900
  
  
  *********************
  Node Flooding Summary
  *********************
  
  Flooding refers to all water that overflows a node, whether it ponds or not.
  --------------------------------------------------------------------------
                                                             Total   Maximum
                                 Maximum   Time of Max       Flood    Ponded
                        Hours       Rate    Occurrence      Volume     Depth
  Node                 Flooded       LPS   days hr:min    10^6 ltr    Meters
  --------------------------------------------------------------------------
  XR-storage              2.33    254.49      0  05:20       0.840     0.000
  
  
  **********************
  Storage Volume Summary
  **********************
  
  --------------------------------------------------------------------------------------------------
                         Average     Avg  Evap Exfil       Maximum     Max    Time of Max    Maximum
                          Volume    Pcnt  Pcnt  Pcnt        Volume    Pcnt     Occurrence    Outflow
  Storage Unit           1000 m3    Full  Loss  Loss       1000 m3    Full    days hr:min        LPS
  --------------------------------------------------------------------------------------------------
  JK-storage               0.020       7     0     0         0.184      63       0  03:15     600.00
  CC-storage               0.927       6     0     0         1.419       9       0  04:27     400.00
  XR-storage               0.872      94     0     0         0.926     100       0  02:23     379.99
  
  
  ***********************
  Outfall Loading Summary
  ***********************
  
  -----------------------------------------------------------
                         Flow       Avg       Max       Total
                         Freq      Flow      Flow      Volume
  Outfall Node           Pcnt       LPS       LPS    10^6 ltr
  -----------------------------------------------------------
  WSC                  100.00    580.36    874.87      13.816
  3                     84.32    161.43    506.51       2.698
  4                     44.79     46.61    108.78       0.438
  5                      0.00      0.00      0.00       0.000
  -----------------------------------------------------------
  System                57.28    788.40   1301.79      16.952
  
  
  ********************
  Link Flow Summary
  ********************
  
  -----------------------------------------------------------------------------
                                 Maximum  Time of Max   Maximum    Max/    Max/
                                  |Flow|   Occurrence   |Veloc|    Full    Full
  Link                 Type          LPS  days hr:min     m/sec    Flow   Depth
  -----------------------------------------------------------------------------
  WS02003066WSF200     CONDUIT    524.43     0  02:37      2.72    0.09    0.23
  WS02006287WS02006284 CONDUIT    215.11     0  02:18      1.65    0.10    0.22
  WS02006284WS02006280 CONDUIT    215.21     0  02:18      1.89    0.09    0.20
  WS02006280WS02006229 CONDUIT    215.21     0  02:18      3.04    0.05    0.15
  WS02006229WS02006228 CONDUIT    536.63     0  02:28      1.07    1.78    1.00
  WS02006256WS02006235 CONDUIT    149.96     0  00:15      2.14    1.59    1.00
  WS02006253WS02006251 CONDUIT     47.21     0  02:23      0.50    0.14    0.90
  WS02006252WS02006251 CONDUIT    400.65     0  03:30      3.19    1.47    1.00
  WS02006251WS02006249 CONDUIT    407.11     0  03:32      1.18    1.17    0.88
  WS02006249WS02006248 CONDUIT    359.84     0  02:22      1.23    1.97    0.84
  WS02006248WS02006247 CONDUIT    354.17     0  02:22      1.19    0.77    0.88
  WS02006247WS02006245 CONDUIT    347.26     0  02:23      1.17    2.75    0.92
  WS02006245WS02006243 CONDUIT    338.07     0  02:23      1.22    1.00    0.93
  WS02006243WS02006242 CONDUIT    336.21     0  03:31      1.04    0.72    0.98
  WS02006242WS02006240 CONDUIT    334.39     0  03:30      0.91    1.33    1.00
  WS02006240WS02006239 CONDUIT    333.22     0  03:30      0.94    1.05    1.00
  WS02006239WS02006238 CONDUIT    331.90     0  03:30      0.89    1.06    1.00
  WS02006238WS02006235 CONDUIT    330.57     0  03:30      0.89    0.74    1.00
  WS02006235WS02006234 CONDUIT    389.66     0  03:40      1.04    4.11    1.00
  WS02006234WS02006232 CONDUIT    389.52     0  03:40      1.01    0.79    1.00
  WS02006232WS02006231 CONDUIT    389.53     0  03:40      1.06    0.82    0.98
  WS02006231WS02006230 CONDUIT    389.31     0  03:40      1.35    5.91    0.95
  WS02006230WS02006229 CONDUIT    399.56     0  03:41      1.04    8.89    1.00
  WS02006228WS02006109 CONDUIT    536.64     0  02:28      1.07    2.34    1.00
  WS02006116WS02004401 CONDUIT    532.55     0  02:31      0.80    0.73    0.84
  WS02006115WS02006116 CONDUIT    535.90     0  02:30      0.89    0.69    0.75
  WS02006113WS02006111 CONDUIT    558.81     0  02:29      2.46    0.67    0.46
  WS02006112WS02006115 CONDUIT    544.08     0  02:29      0.76    0.32    0.87
  WS02006111WS02006112 CONDUIT    544.35     0  02:29      1.51    0.26    0.67
  WS02006110WS02006113 CONDUIT    538.02     0  02:29      1.27    0.49    0.78
  WS02006109WS02006110 CONDUIT    537.88     0  02:28      1.07    1.03    1.00
  WS02004411WS02004412 CONDUIT    524.78     0  02:35      0.91    0.75    0.69
  WS02004401WS02004402 CONDUIT    531.64     0  02:32      0.83    0.64    0.86
  WS02004413WS02003067 CONDUIT    524.40     0  02:37      1.10    0.22    0.59
  WS02004412WS02004413 CONDUIT    524.50     0  02:37      0.81    0.35    0.77
  WS02004410WS02004411 CONDUIT    526.01     0  02:35      0.93    0.72    0.68
  WS02004409WS02004410 CONDUIT    527.98     0  02:34      0.97    0.68    0.67
  WS02004407WS02004409 CONDUIT    530.74     0  02:34      1.49    0.19    0.48
  WS02004406WS02004407 CONDUIT    530.92     0  02:34      1.03    0.24    0.62
  WS02004405WS02004406 CONDUIT    531.37     0  02:33      0.75    1.05    0.95
  WS02004404WS02004405 CONDUIT    531.17     0  02:33      0.96    5.20    0.96
  WS02004403WS02004404 CONDUIT    530.99     0  02:33      0.84    0.38    0.92
  WS02004402WS02004403 CONDUIT    531.16     0  02:33      0.85    0.76    0.88
  WS02004139WS02001211 CONDUIT    375.06     0  07:20      0.57    0.47    0.58
  WS02004138WS02004139 CONDUIT    379.51     0  00:40      2.39    0.08    0.43
  WS02003067WS02003066 CONDUIT    524.41     0  02:37      1.19    0.17    0.41
  WS02001213WS02003059 CONDUIT    379.38     0  07:22      0.68    0.63    0.76
  WS02001212WS02001213 CONDUIT    378.80     0  07:21      1.31    0.58    0.46
  WS02001211WS02001212 CONDUIT    379.27     0  07:21      0.77    0.29    0.64
  WS02003072WS02003073 CONDUIT    873.54     0  02:53      1.68    1.89    0.47
  WS02003069WS02003072 CONDUIT    873.86     0  02:53      1.59    0.42    0.49
  WS02003060WS02003069 CONDUIT    874.02     0  02:52      1.83    0.34    0.44
  WS02003059WS02003060 CONDUIT    380.84     0  07:22      0.93    0.25    0.64
  HS02004901HS02004770 CONDUIT     10.82     0  02:15      0.05    0.04    0.32
  HS02004876HS02004881 CONDUIT     36.57     0  02:18      0.58    0.39    0.09
  HS02004870HS02004876 CONDUIT     29.06     0  02:18      0.41    0.02    0.10
  HS02004842HS02004848 CONDUIT      5.64     0  02:31      0.03    0.00    0.28
  HS02004837HS02004842 CONDUIT      5.83     0  02:31      0.42    0.00    0.29
  HS02004830HS02004837 CONDUIT     24.52     0  02:18      0.45    0.02    0.08
  HS02004824HS02004830 CONDUIT     24.67     0  02:19      0.49    0.03    0.07
  HS02004817HS02004824 CONDUIT     39.99     0  02:21      0.17    0.02    0.40
  HS02004770HS02004777 CONDUIT     55.17     0  02:14      0.23    0.10    0.34
  HS02004799HS02004480 CONDUIT    136.37     0  02:16      0.61    0.17    0.32
  HS02004792HS02004799 CONDUIT    124.65     0  02:16      0.70    0.08    0.25
  HS02004788HS02004792 CONDUIT     72.56     0  02:17      0.85    0.05    0.12
  HS02004785HS02004788 CONDUIT     54.77     0  02:16      0.53    0.41    0.15
  HS02004777HS02004785 CONDUIT     54.72     0  02:15      0.28    0.07    0.28
  HS02004480HS02004478 CONDUIT    161.02     0  02:17      0.98    0.68    0.23
  HS02004479HS02004480 CONDUIT     25.21     0  02:19      0.15    0.02    0.31
  HS02004862HS02004870 CONDUIT     21.22     0  02:19      0.48    0.02    0.06
  HS02004848HS02004852 CONDUIT      8.60     0  02:18      0.32    0.01    0.04
  HS02004856HS02004862 CONDUIT     14.39     0  02:18      0.35    0.01    0.06
  HS02004852HS02004856 CONDUIT      8.57     0  02:20      0.13    0.01    0.09
  HS02004802HS02004478 CONDUIT     55.65     0  02:22      0.31    0.05    0.26
  HS02004478WS02006287 CONDUIT    215.09     0  02:18      1.34    0.06    0.18
  HS02004817HS02004807 CONDUIT     41.18     0  02:23      0.11    0.02    0.52
  HS02004807HS02004802 CONDUIT     55.25     0  02:21      0.26    0.11    0.31
  YS02001759YS02001757 CONDUIT    212.57     0  02:55      0.27    0.15    1.00
  YS02001762YS02001759 CONDUIT    112.07     0  02:55      0.18    0.13    1.00
  YS02001765YS02001762 CONDUIT    129.20     0  02:40      0.23    0.12    1.00
  YS02001770YS02001767 CONDUIT    122.09     0  02:56      0.32    0.48    1.00
  YS02001774YS02001770 CONDUIT     44.95     0  02:15      0.15    0.03    1.00
  YS02001779YS02001774 CONDUIT     22.71     0  02:56      0.07    0.01    0.93
  YS02001649YS02001757 CONDUIT    330.25     0  03:06      0.42    0.20    1.00
  YS02001767YS02001765 CONDUIT    124.20     0  02:37      0.26    0.16    1.00
  YS02006561YS02001783 CONDUIT    344.98     0  02:56      1.83    0.18    0.40
  YS02001783YS02001784 CONDUIT    344.99     0  02:56      1.27    0.48    0.53
  YS02001784YS02001785 CONDUIT    346.02     0  02:56      1.36    0.81    0.51
  YS02001788YS02001790 CONDUIT    346.14     0  02:56      1.92    0.26    0.39
  YS02001790YS02001791 CONDUIT    346.28     0  02:56      2.20    0.38    0.35
  YS02001791YS02001793 CONDUIT    346.28     0  02:56      4.52    0.15    0.22
  YS02001910YS02001907 CONDUIT    108.09     0  03:01      0.49    0.06    0.76
  YS02001786YS02001788 CONDUIT    346.07     0  02:57      1.80    0.67    0.41
  YS02001915YS02001910 CONDUIT    107.92     0  03:01      0.44    0.05    0.55
  YS02001918YS02001915 CONDUIT     36.35     0  03:03      0.44    0.02    0.27
  YS02001923YS02001920 CONDUIT     33.53     0  03:02      0.47    0.02    0.15
  YS02001926YS02001923 CONDUIT     33.50     0  03:01      0.51    0.05    0.14
  YS02001929YS02001926 CONDUIT     33.52     0  03:01      0.54    0.02    0.13
  YS02001920YS02001918 CONDUIT     36.38     0  03:02      0.48    0.04    0.15
  YS02001629YS02163301 CONDUIT     99.26     0  03:28      0.13    0.12    1.00
  YS02001619YS02001622 CONDUIT     86.66     0  03:05      0.66    0.13    0.63
  YS02001622YS02001625 CONDUIT     85.82     0  03:07      0.25    0.05    0.80
  YS02001625YS02001629 CONDUIT     96.14     0  03:23      0.25    0.05    0.78
  YS02163301YS02001633 CONDUIT     86.52     0  03:26      0.11    0.08    1.00
  YS02163601YS02164001 CONDUIT    156.11     0  02:53      0.20    0.14    1.00
  YS02164001YS02001641 CONDUIT    155.33     0  03:03      0.20    0.21    1.00
  YS02001641YS02001644 CONDUIT    158.38     0  03:05      0.20    0.51    1.00
  YS02001647YS02001649 CONDUIT    247.29     0  03:03      0.32    0.13    0.98
  YS02006553YS02006556 CONDUIT    236.01     0  03:02      0.34    0.20    0.84
  YS02006556YS02006558 CONDUIT    236.29     0  03:03      0.33    0.19    0.87
  YSB6556YSB1171       CONDUIT     13.64     0  02:19      0.06    0.01    0.58
  YS02001907YS02006553 CONDUIT    235.60     0  03:02      0.27    0.28    0.96
  YS02006558YS02006561 CONDUIT    348.94     0  02:56      2.39    0.77    0.52
  YS02001633YS02163601 CONDUIT    154.24     0  02:53      0.20    0.16    1.00
  YS02001644YS02001647 CONDUIT    233.19     0  03:02      0.30    0.14    0.98
  YS02001745YS02001748 CONDUIT     79.65     0  03:01      1.43    0.03    0.25
  YS02001748YS02001751 CONDUIT    135.66     0  03:30      1.10    0.07    0.56
  YS02001751YS02001754 CONDUIT     94.72     0  03:41      0.97    0.05    0.78
  YS02001754YS02001757 CONDUIT    109.66     0  03:28      0.33    0.04    0.97
  YS02001882YS02001884 CONDUIT      4.20     0  02:10      0.06    0.00    0.48
  YS02001884YS02001887 CONDUIT     11.86     0  02:07      0.06    0.02    0.58
  YS02001890YS02001895 CONDUIT    129.97     0  02:46      0.30    0.06    0.55
  YS02001895YS02001898 CONDUIT    129.91     0  02:47      0.49    0.23    0.41
  YS02001898YS02001901 CONDUIT    129.69     0  02:47      0.34    0.08    0.49
  YS02001901YS02001904 CONDUIT    129.05     0  02:47      0.30    0.20    0.54
  YS02001904YS02001907 CONDUIT    129.10     0  02:51      0.22    0.05    0.70
  YS02001887YS02001890 CONDUIT    130.31     0  02:42      0.25    0.22    0.63
  YS02001652YS02001649 CONDUIT    137.12     0  02:38      0.33    0.07    0.98
  YS02001655YS02001652 CONDUIT    123.61     0  02:59      1.05    0.06    0.82
  YS02001658YS02001655 CONDUIT    149.68     0  03:22      1.27    0.06    0.55
  YS02001661YS02001658 CONDUIT     92.84     0  02:46      1.48    0.04    0.25
  YS02001664YS02001661 CONDUIT     92.85     0  02:46      1.16    0.03    0.16
  YSB1154YSB6556       CONDUIT     13.43     0  02:17      0.19    0.02    0.47
  YSB1174YSB1171       CONDUIT     12.37     0  02:11      0.06    0.02    0.59
  YSB1171HS02004479    CONDUIT     24.97     0  02:18      0.54    0.02    0.45
  HS02004881HS02006253 CONDUIT     40.91     0  02:18      1.70    0.01    0.23
  YS02001793JiankangQianchi CONDUIT    346.28     0  02:56     13.33    0.03    0.56
  YS02001757CaochengTiaoxuchi CONDUIT    580.07     0  03:00      1.24    0.25    0.75
  WSF200WS02003060     CONDUIT    524.62     0  02:36      1.76    0.12    0.33
  1                    CONDUIT    874.87     0  02:54      3.21    0.30    0.38
  2                    CONDUIT    108.78     0  03:41      4.96    0.26    0.35
  3                    CONDUIT    506.51     0  03:40      9.82    0.81    0.69
  4                    CONDUIT      0.00     0  00:00      0.00    0.00    0.00
  CC-Pump-1            PUMP       200.00     0  02:40              1.00
  CC-Pump-2            PUMP       200.00     0  02:22              1.00
  JK-Pump-1            PUMP       300.00     0  02:32              1.00
  JK-Pump-2            PUMP       300.00     0  00:20              1.00
  XR-Pump-1            PUMP        95.00     0  00:20              1.00
  XR-Pump-2            PUMP        95.00     0  00:40              1.00
  XR-Pump-3            PUMP        95.00     0  00:00              1.00
  XR-Pump-4            PUMP        95.00     0  00:20              1.00
  
  
  ***************************
  Flow Classification Summary
  ***************************
  
  -------------------------------------------------------------------------------------
                      Adjusted    ---------- Fraction of Time in Flow Class ---------- 
                       /Actual         Up    Down  Sub   Sup   Up    Down  Norm  Inlet 
  Conduit               Length    Dry  Dry   Dry   Crit  Crit  Crit  Crit  Ltd   Ctrl  
  -------------------------------------------------------------------------------------
  WS02003066WSF200        1.00   0.04  0.01  0.00  0.00  0.95  0.00  0.00  0.76  0.00
  WS02006287WS02006284    1.00   0.04  0.02  0.00  0.70  0.24  0.00  0.00  0.77  0.00
  WS02006284WS02006280    1.00   0.04  0.00  0.00  0.00  0.00  0.00  0.96  0.00  0.00
  WS02006280WS02006229    1.00   0.04  0.00  0.00  0.00  0.00  0.00  0.96  0.00  0.00
  WS02006229WS02006228    1.00   0.00  0.00  0.00  1.00  0.00  0.00  0.00  0.00  0.00
  WS02006256WS02006235    1.00   0.00  0.00  0.00  1.00  0.00  0.00  0.00  0.00  0.00
  WS02006253WS02006251    1.00   0.03  0.01  0.00  0.96  0.00  0.00  0.00  0.00  0.00
  WS02006252WS02006251    1.00   0.08  0.00  0.00  0.00  0.00  0.92  0.00  0.00  0.00
  WS02006251WS02006249    1.00   0.00  0.00  0.00  1.00  0.00  0.00  0.00  0.27  0.00
  WS02006249WS02006248    1.00   0.00  0.00  0.00  0.90  0.00  0.10  0.00  0.00  0.00
  WS02006248WS02006247    1.00   0.00  0.00  0.00  0.97  0.00  0.00  0.02  0.17  0.00
  WS02006247WS02006245    1.00   0.00  0.00  0.00  0.98  0.00  0.00  0.02  0.00  0.00
  WS02006245WS02006243    1.00   0.01  0.00  0.00  0.95  0.00  0.00  0.04  0.01  0.00
  WS02006243WS02006242    1.00   0.01  0.00  0.00  0.99  0.00  0.00  0.00  0.23  0.00
  WS02006242WS02006240    1.00   0.01  0.00  0.00  0.99  0.00  0.00  0.00  0.00  0.00
  WS02006240WS02006239    1.00   0.00  0.00  0.00  0.96  0.00  0.00  0.04  0.01  0.00
  WS02006239WS02006238    1.00   0.00  0.00  0.00  1.00  0.00  0.00  0.00  0.00  0.00
  WS02006238WS02006235    1.00   0.00  0.00  0.00  1.00  0.00  0.00  0.00  0.00  0.00
  WS02006235WS02006234    1.00   0.00  0.00  0.00  0.96  0.00  0.04  0.00  0.00  0.00
  WS02006234WS02006232    1.00   0.00  0.00  0.00  1.00  0.00  0.00  0.00  0.10  0.00
  WS02006232WS02006231    1.00   0.00  0.00  0.00  0.99  0.00  0.00  0.00  0.00  0.00
  WS02006231WS02006230    1.00   0.01  0.00  0.00  0.68  0.00  0.31  0.00  0.00  0.00
  WS02006230WS02006229    1.00   0.00  0.00  0.00  0.99  0.00  0.00  0.01  0.01  0.00
  WS02006228WS02006109    1.00   0.00  0.00  0.00  1.00  0.00  0.00  0.00  0.00  0.00
  WS02006116WS02004401    1.00   0.03  0.00  0.00  0.97  0.00  0.00  0.00  0.00  0.00
  WS02006115WS02006116    1.00   0.03  0.00  0.00  0.97  0.00  0.00  0.00  0.00  0.00
  WS02006113WS02006111    1.00   0.01  0.00  0.00  0.00  0.99  0.00  0.00  0.11  0.00
  WS02006112WS02006115    1.00   0.02  0.01  0.00  0.97  0.00  0.00  0.00  0.00  0.00
  WS02006111WS02006112    1.00   0.02  0.00  0.00  0.98  0.00  0.00  0.00  0.95  0.00
  WS02006110WS02006113    1.00   0.00  0.01  0.00  0.99  0.00  0.00  0.00  0.00  0.00
  WS02006109WS02006110    1.00   0.00  0.00  0.00  1.00  0.00  0.00  0.00  0.00  0.00
  WS02004411WS02004412    1.00   0.04  0.00  0.00  0.96  0.00  0.00  0.00  0.00  0.00
  WS02004401WS02004402    1.00   0.03  0.00  0.00  0.97  0.00  0.00  0.00  0.00  0.00
  WS02004413WS02003067    1.00   0.04  0.01  0.00  0.00  0.00  0.95  0.00  0.00  0.00
  WS02004412WS02004413    1.00   0.04  0.00  0.00  0.96  0.00  0.00  0.00  0.02  0.00
  WS02004410WS02004411    1.00   0.04  0.00  0.00  0.96  0.00  0.00  0.00  0.02  0.00
  WS02004409WS02004410    1.00   0.04  0.00  0.00  0.96  0.00  0.00  0.00  0.04  0.00
  WS02004407WS02004409    1.00   0.04  0.00  0.00  0.96  0.00  0.00  0.00  0.90  0.00
  WS02004406WS02004407    1.00   0.00  0.03  0.00  0.96  0.00  0.00  0.00  0.00  0.00
  WS02004405WS02004406    1.00   0.00  0.00  0.00  1.00  0.00  0.00  0.00  0.03  0.00
  WS02004404WS02004405    1.00   0.00  0.00  0.00  1.00  0.00  0.00  0.00  0.00  0.00
  WS02004403WS02004404    1.00   0.00  0.03  0.00  0.97  0.00  0.00  0.00  0.00  0.00
  WS02004402WS02004403    1.00   0.03  0.00  0.00  0.97  0.00  0.00  0.00  0.00  0.00
  WS02004139WS02001211    1.00   0.00  0.00  0.00  1.00  0.00  0.00  0.00  0.00  0.00
  WS02004138WS02004139    1.00   0.00  0.00  0.00  1.00  0.00  0.00  0.00  1.00  0.00
  WS02003067WS02003066    1.00   0.05  0.00  0.00  0.95  0.00  0.00  0.00  0.00  0.00
  WS02001213WS02003059    1.00   0.00  0.00  0.00  1.00  0.00  0.00  0.00  0.00  0.00
  WS02001212WS02001213    1.00   0.00  0.00  0.00  0.87  0.00  0.13  0.00  0.00  0.00
  WS02001211WS02001212    1.00   0.00  0.00  0.00  1.00  0.00  0.00  0.00  0.00  0.00
  WS02003072WS02003073    1.00   0.00  0.00  0.00  0.00  0.00  0.00  1.00  0.00  0.00
  WS02003069WS02003072    1.00   0.00  0.00  0.00  1.00  0.00  0.00  0.00  0.30  0.00
  WS02003060WS02003069    1.00   0.00  0.00  0.00  0.97  0.03  0.00  0.00  0.13  0.00
  WS02003059WS02003060    1.00   0.00  0.00  0.00  1.00  0.00  0.00  0.00  0.02  0.00
  HS02004901HS02004770    1.00   0.04  0.00  0.00  0.96  0.00  0.00  0.00  0.02  0.00
  HS02004876HS02004881    1.00   0.00  0.00  0.00  1.00  0.00  0.00  0.00  0.00  0.00
  HS02004870HS02004876    1.00   0.00  0.00  0.00  1.00  0.00  0.00  0.00  0.95  0.00
  HS02004842HS02004848    1.00   0.00  0.04  0.00  0.96  0.00  0.00  0.00  0.68  0.00
  HS02004837HS02004842    1.00   0.00  0.00  0.00  1.00  0.00  0.00  0.00  0.11  0.00
  HS02004830HS02004837    1.00   0.00  0.00  0.00  1.00  0.00  0.00  0.00  0.99  0.00
  HS02004824HS02004830    1.00   0.00  0.00  0.00  1.00  0.00  0.00  0.00  0.00  0.00
  HS02004817HS02004824    1.00   0.00  0.00  0.00  1.00  0.00  0.00  0.00  1.00  0.00
  HS02004770HS02004777    1.00   0.00  0.04  0.00  0.96  0.00  0.00  0.00  0.07  0.00
  HS02004799HS02004480    1.00   0.00  0.01  0.00  0.94  0.00  0.05  0.00  0.00  0.00
  HS02004792HS02004799    1.00   0.00  0.00  0.00  1.00  0.00  0.00  0.00  0.98  0.00
  HS02004788HS02004792    1.00   0.00  0.00  0.00  1.00  0.00  0.00  0.00  0.98  0.00
  HS02004785HS02004788    1.00   0.00  0.00  0.00  1.00  0.00  0.00  0.00  0.00  0.00
  HS02004777HS02004785    1.00   0.00  0.00  0.00  1.00  0.00  0.00  0.00  0.21  0.00
  HS02004480HS02004478    1.00   0.05  0.00  0.00  0.74  0.00  0.00  0.21  0.00  0.00
  HS02004479HS02004480    1.00   0.01  0.00  0.00  0.99  0.00  0.00  0.00  0.16  0.00
  HS02004862HS02004870    1.00   0.00  0.00  0.00  1.00  0.00  0.00  0.00  0.06  0.00
  HS02004848HS02004852    1.00   0.04  0.00  0.00  0.96  0.00  0.00  0.00  0.71  0.00
  HS02004856HS02004862    1.00   0.00  0.07  0.00  0.93  0.00  0.00  0.00  0.74  0.00
  HS02004852HS02004856    1.00   0.04  0.01  0.00  0.95  0.00  0.00  0.00  0.83  0.00
  HS02004802HS02004478    1.00   0.04  0.01  0.00  0.95  0.00  0.00  0.00  0.01  0.00
  HS02004478WS02006287    1.00   0.05  0.00  0.00  0.86  0.08  0.00  0.00  0.77  0.00
  HS02004817HS02004807    1.00   0.00  0.04  0.00  0.96  0.00  0.00  0.00  0.00  0.00
  HS02004807HS02004802    1.00   0.04  0.00  0.00  0.95  0.00  0.00  0.00  0.01  0.00
  YS02001759YS02001757    1.00   0.00  0.00  0.00  1.00  0.00  0.00  0.00  0.17  0.00
  YS02001762YS02001759    1.00   0.00  0.00  0.00  1.00  0.00  0.00  0.00  0.04  0.00
  YS02001765YS02001762    1.00   0.00  0.00  0.00  1.00  0.00  0.00  0.00  0.22  0.00
  YS02001770YS02001767    1.00   0.00  0.00  0.00  1.00  0.00  0.00  0.00  0.00  0.00
  YS02001774YS02001770    1.00   0.00  0.05  0.00  0.95  0.00  0.00  0.00  0.07  0.00
  YS02001779YS02001774    1.00   0.00  0.00  0.00  1.00  0.00  0.00  0.00  0.26  0.00
  YS02001649YS02001757    1.00   0.00  0.00  0.00  1.00  0.00  0.00  0.00  0.19  0.00
  YS02001767YS02001765    1.00   0.00  0.00  0.00  1.00  0.00  0.00  0.00  0.01  0.00
  YS02006561YS02001783    1.00   0.07  0.00  0.00  0.00  0.93  0.00  0.00  0.73  0.00
  YS02001783YS02001784    1.00   0.00  0.07  0.00  0.93  0.00  0.00  0.00  0.00  0.00
  YS02001784YS02001785    1.00   0.00  0.00  0.00  1.00  0.00  0.00  0.00  0.25  0.00
  YS02001788YS02001790    1.00   0.00  0.00  0.00  0.07  0.93  0.00  0.00  0.75  0.00
  YS02001790YS02001791    1.00   0.00  0.00  0.00  0.00  1.00  0.00  0.00  0.57  0.00
  YS02001791YS02001793    1.00   0.00  0.00  0.00  0.00  1.00  0.00  0.00  0.00  0.00
  YS02001910YS02001907    1.00   0.00  0.00  0.00  0.99  0.00  0.00  0.00  0.13  0.00
  YS02001786YS02001788    1.00   0.00  0.00  0.00  0.07  0.93  0.00  0.00  0.00  0.00
  YS02001915YS02001910    1.00   0.00  0.00  0.00  1.00  0.00  0.00  0.00  0.24  0.00
  YS02001918YS02001915    1.00   0.00  0.00  0.00  1.00  0.00  0.00  0.00  0.82  0.00
  YS02001923YS02001920    1.00   0.00  0.00  0.00  1.00  0.00  0.00  0.00  1.00  0.00
  YS02001926YS02001923    1.00   0.00  0.03  0.00  0.00  0.00  0.97  0.00  0.00  0.00
  YS02001929YS02001926    1.00   0.00  0.04  0.00  0.96  0.00  0.00  0.00  0.87  0.00
  YS02001920YS02001918    1.00   0.00  0.00  0.00  1.00  0.00  0.00  0.00  0.00  0.00
  YS02001629YS02163301    1.00   0.06  0.00  0.00  0.94  0.00  0.00  0.00  0.00  0.00
  YS02001619YS02001622    1.00   0.04  0.00  0.00  0.96  0.00  0.00  0.00  0.00  0.00
  YS02001622YS02001625    1.00   0.04  0.00  0.00  0.96  0.00  0.00  0.00  0.13  0.00
  YS02001625YS02001629    1.00   0.04  0.03  0.00  0.92  0.00  0.01  0.00  0.00  0.00
  YS02163301YS02001633    1.00   0.00  0.06  0.00  0.94  0.00  0.00  0.00  0.00  0.00
  YS02163601YS02164001    1.00   0.00  0.03  0.00  0.97  0.00  0.00  0.00  0.00  0.00
  YS02164001YS02001641    1.00   0.00  0.03  0.00  0.97  0.00  0.00  0.00  0.07  0.00
  YS02001641YS02001644    1.00   0.00  0.00  0.00  1.00  0.00  0.00  0.00  0.00  0.00
  YS02001647YS02001649    1.00   0.00  0.07  0.00  0.93  0.00  0.00  0.00  0.01  0.00
  YS02006553YS02006556    1.00   0.00  0.00  0.00  1.00  0.00  0.00  0.00  0.03  0.00
  YS02006556YS02006558    1.00   0.00  0.00  0.00  1.00  0.00  0.00  0.00  0.00  0.00
  YSB6556YSB1171          1.00   0.01  0.03  0.00  0.96  0.00  0.00  0.00  0.00  0.00
  YS02001907YS02006553    1.00   0.00  0.00  0.00  1.00  0.00  0.00  0.00  0.00  0.00
  YS02006558YS02006561    1.00   0.07  0.00  0.00  0.00  0.93  0.00  0.00  0.70  0.00
  YS02001633YS02163601    1.00   0.00  0.00  0.00  1.00  0.00  0.00  0.00  0.20  0.00
  YS02001644YS02001647    1.00   0.00  0.07  0.00  0.93  0.00  0.00  0.00  0.00  0.00
  YS02001745YS02001748    1.00   0.00  0.00  0.00  0.86  0.02  0.00  0.12  0.68  0.00
  YS02001748YS02001751    1.00   0.00  0.00  0.00  0.98  0.02  0.00  0.00  0.24  0.00
  YS02001751YS02001754    1.00   0.00  0.00  0.00  0.93  0.00  0.00  0.07  0.02  0.00
  YS02001754YS02001757    1.00   0.00  0.00  0.00  1.00  0.00  0.00  0.00  0.26  0.00
  YS02001882YS02001884    1.00   0.06  0.00  0.00  0.94  0.00  0.00  0.00  0.00  0.00
  YS02001884YS02001887    1.00   0.03  0.01  0.00  0.96  0.00  0.00  0.00  0.00  0.00
  YS02001890YS02001895    1.00   0.00  0.06  0.00  0.94  0.00  0.00  0.00  0.00  0.00
  YS02001895YS02001898    1.00   0.06  0.00  0.00  0.93  0.00  0.01  0.00  0.00  0.00
  YS02001898YS02001901    1.00   0.06  0.00  0.00  0.94  0.00  0.00  0.00  0.02  0.00
  YS02001901YS02001904    1.00   0.06  0.00  0.00  0.94  0.00  0.00  0.00  0.00  0.00
  YS02001904YS02001907    1.00   0.00  0.06  0.00  0.94  0.00  0.00  0.00  0.00  0.00
  YS02001887YS02001890    1.00   0.00  0.00  0.00  0.99  0.00  0.01  0.00  0.00  0.00
  YS02001652YS02001649    1.00   0.00  0.00  0.00  1.00  0.00  0.00  0.00  0.26  0.00
  YS02001655YS02001652    1.00   0.00  0.00  0.00  0.93  0.00  0.00  0.07  0.02  0.00
  YS02001658YS02001655    1.00   0.00  0.05  0.00  0.92  0.02  0.00  0.00  0.11  0.00
  YS02001661YS02001658    1.00   0.05  0.00  0.00  0.86  0.09  0.00  0.00  0.73  0.00
  YS02001664YS02001661    1.00   0.04  0.00  0.00  0.75  0.21  0.00  0.00  0.86  0.00
  YSB1154YSB6556          1.00   0.04  0.00  0.00  0.96  0.00  0.00  0.00  0.02  0.00
  YSB1174YSB1171          1.00   0.03  0.01  0.00  0.96  0.00  0.00  0.00  0.00  0.00
  YSB1171HS02004479       1.00   0.01  0.00  0.00  0.97  0.00  0.00  0.02  0.13  0.00
  HS02004881HS02006253    1.00   0.02  0.00  0.00  0.78  0.01  0.00  0.18  0.57  0.00
  YS02001793JiankangQianchi    1.00   0.00  0.00  0.00  0.22  0.78  0.00  0.00  0.25  0.00
  YS02001757CaochengTiaoxuchi    1.00   0.00  0.08  0.00  0.92  0.00  0.00  0.00  0.00  0.00
  WSF200WS02003060        1.00   0.00  0.04  0.00  0.66  0.30  0.00  0.00  0.29  0.00
  1                       1.00   0.00  0.00  0.00  0.00  1.00  0.00  0.00  0.38  0.00
  2                       1.00   0.55  0.00  0.00  0.00  0.45  0.00  0.00  0.12  0.00
  3                       1.00   0.16  0.00  0.00  0.00  0.84  0.00  0.00  0.29  0.00
  4                       1.00   1.00  0.00  0.00  0.00  0.00  0.00  0.00  0.00  0.00
  
  
  *************************
  Conduit Surcharge Summary
  *************************
  
  ----------------------------------------------------------------------------
                                                           Hours        Hours 
                         --------- Hours Full --------   Above Full   Capacity
  Conduit                Both Ends  Upstream  Dnstream   Normal Flow   Limited
  ----------------------------------------------------------------------------
  WS02006229WS02006228        1.83      2.26      1.83      4.18         1.82
  WS02006256WS02006235        5.71      5.71      7.02      1.99         0.01
  WS02006252WS02006251        1.48      1.48      2.68      2.37         0.01
  WS02006251WS02006249        0.01      0.01      0.01      1.46         0.01
  WS02006249WS02006248        0.01      0.01      0.01      4.08         0.01
  WS02006247WS02006245        0.01      0.01      0.01      4.56         0.01
  WS02006243WS02006242        0.01      0.01      1.16      0.01         0.01
  WS02006242WS02006240        0.03      0.03      1.79      2.68         0.01
  WS02006240WS02006239        0.25      0.25      0.55      0.02         0.01
  WS02006239WS02006238        1.51      1.51      1.67      0.13         0.10
  WS02006238WS02006235        1.42      1.42      2.24      0.01         0.01
  WS02006235WS02006234        0.13      0.13      1.09      5.74         0.01
  WS02006234WS02006232        0.38      0.38      2.46      0.01         0.01
  WS02006232WS02006231        0.01      0.01      2.46      0.01         0.01
  WS02006231WS02006230        0.01      0.01      0.01      5.75         0.01
  WS02006230WS02006229        3.53      3.97      3.53      5.84         3.53
  WS02006228WS02006109        2.05      2.94      2.05      5.21         2.05
  WS02006112WS02006115        0.01      0.01      0.29      0.01         0.01
  WS02006111WS02006112        0.01      0.01      4.40      0.01         0.01
  WS02006110WS02006113        0.01      0.01      2.62      0.01         0.01
  WS02006109WS02006110        0.12      0.12      2.94      0.12         0.01
  WS02004405WS02004406        0.01      0.01      0.01      0.19         0.01
  WS02004404WS02004405        0.01      0.01      0.01      5.62         0.01
  WS02003072WS02003073        0.01      0.01      0.01      4.69         0.01
  YS02001759YS02001757        4.20      4.20      5.21      0.01         0.01
  YS02001762YS02001759        3.88      3.88      4.20      0.01         0.01
  YS02001765YS02001762        3.47      3.47      3.88      0.01         0.01
  YS02001770YS02001767        1.47      1.47      1.83      0.01         0.08
  YS02001774YS02001770        0.21      0.21      3.76      0.01         0.01
  YS02001779YS02001774        0.01      0.01      3.76      0.01         0.01
  YS02001649YS02001757        3.96      3.96      5.21      0.01         0.01
  YS02001767YS02001765        1.83      1.83      3.47      0.01         0.01
  YS02001629YS02163301        0.01      0.01      0.49      0.01         0.01
  YS02163301YS02001633        0.49      0.49      3.44      0.01         0.01
  YS02163601YS02164001        3.36      3.36      3.92      0.01         0.01
  YS02164001YS02001641        3.36      3.36      3.68      0.01         0.01
  YS02001641YS02001644        3.68      3.68      3.71      0.01         0.32
  YS02001647YS02001649        0.01      0.01      3.96      0.01         0.01
  YS02001633YS02163601        2.64      2.64      3.92      0.01         0.01
  YS02001644YS02001647        0.01      0.01      3.71      0.01         0.01
  YS02001754YS02001757        0.01      0.01      5.21      0.01         0.01
  YS02001652YS02001649        0.01      0.01      3.96      0.01         0.01
  YS02001793JiankangQianchi        0.01      0.01      1.06      0.01         0.01
  YS02001757CaochengTiaoxuchi        0.01      0.01      5.21      0.01         0.01
  
  
  ***************
  Pumping Summary
  ***************
  
  ---------------------------------------------------------------------------------------------------------
                                                  Min       Avg       Max     Total     Power    % Time Off
                        Percent   Number of      Flow      Flow      Flow    Volume     Usage    Pump Curve
  Pump                 Utilized   Start-Ups       LPS       LPS       LPS  10^6 ltr     Kw-hr    Low   High
  ---------------------------------------------------------------------------------------------------------
  CC-Pump-1               60.20           5      0.00    139.76    200.00     2.347      8.61    0.0   23.1
  CC-Pump-2               60.21           3      0.00    153.35    200.00     2.525      9.22    0.0   16.2
  JK-Pump-1               78.72           5      0.00    135.75    300.00     2.281     42.15    0.0    0.0
  JK-Pump-2               82.98           7      0.00    126.86    300.00     2.307     41.46    0.0    0.0
  XR-Pump-1               68.07           8      0.00     68.44     95.00     1.311      9.66    0.0    0.0
  XR-Pump-2               82.95           9      0.00     64.19     95.00     1.453      9.66    0.0    0.0
  XR-Pump-3               80.84           6      0.00     72.69     95.00     1.596     10.99    0.0    0.0
  XR-Pump-4               87.22           5      0.00     72.60     95.00     1.795     13.09    0.0    0.0
  

  Analysis begun on:  Fri Dec 24 16:24:41 2021
  Analysis ended on:  Fri Dec 24 16:24:44 2021
  Total elapsed time: 00:00:03