
  EPA STORM WATER MANAGEMENT MODEL - VERSION 5.1 (Build 5.3.0.dev0)
  --------------------------------------------------------------

  WARNING 04: minimum elevation drop used for Conduit WS02004404WS02004405
  WARNING 03: negative offset ignored for Link YS02001904YS02001907
  
  *********************************************************
  NOTE: The summary statistics displayed in this report are
  based on results found at every computational time step,  
  not just on results from each reporting time step.
  *********************************************************
  
  ****************
  Analysis Options
  ****************
  Flow Units ............... LPS
  Process Models:
    Rainfall/Runoff ........ YES
    RDII ................... NO
    Snowmelt ............... NO
    Groundwater ............ NO
    Flow Routing ........... YES
    Ponding Allowed ........ NO
    Water Quality .......... NO
  Infiltration Method ...... HORTON
  Flow Routing Method ...... DYNWAVE
  Surcharge Method ......... EXTRAN
  Starting Date ............ 08/28/2015 08:00:00
  Ending Date .............. 08/28/2015 15:50:00
  Antecedent Dry Days ...... 8.0
  Report Time Step ......... 00:01:00
  Wet Time Step ............ 00:01:00
  Dry Time Step ............ 00:01:00
  Routing Time Step ........ 5.00 sec
  Variable Time Step ....... YES
  Maximum Trials ........... 8
  Number of Threads ........ 4
  Head Tolerance ........... 0.001500 m
  
  
  **************************        Volume         Depth
  Runoff Quantity Continuity     hectare-m            mm
  **************************     ---------       -------
  Total Precipitation ......         3.517         7.699
  Evaporation Loss .........         0.000         0.000
  Infiltration Loss ........         0.893         1.955
  Surface Runoff ...........         1.682         3.682
  Final Storage ............         0.943         2.064
  Continuity Error (%) .....        -0.018
  
  
  **************************        Volume        Volume
  Flow Routing Continuity        hectare-m      10^6 ltr
  **************************     ---------     ---------
  Dry Weather Inflow .......         0.616         6.165
  Wet Weather Inflow .......         1.681        16.806
  Groundwater Inflow .......         0.000         0.000
  RDII Inflow ..............         0.000         0.000
  External Inflow ..........         0.102         1.024
  External Outflow .........         1.830        18.305
  Flooding Loss ............         0.086         0.855
  Evaporation Loss .........         0.000         0.000
  Exfiltration Loss ........         0.000         0.000
  Initial Stored Volume ....         0.076         0.761
  Final Stored Volume ......         0.634         6.341
  Continuity Error (%) .....        -3.015
  
  
  *************************
  Highest Continuity Errors
  *************************
  Node YS02001774 (31.80%)
  Node HS02004842 (23.63%)
  Node YS02001884 (14.99%)
  Node JK-storage (-14.07%)
  Node YSB1171 (5.13%)
  
  
  ***************************
  Time-Step Critical Elements
  ***************************
  Link WS02006252WS02006251 (48.09%)
  Link 3 (41.54%)
  Link WS02006238WS02006235 (3.00%)
  Link WS02006280WS02006229 (1.81%)
  Link WS02004404WS02004405 (1.06%)
  
  
  ********************************
  Highest Flow Instability Indexes
  ********************************
  Link WS02006113WS02006111 (39)
  Link YS02001779YS02001774 (33)
  Link YS02001774YS02001770 (29)
  Link YS02001765YS02001762 (21)
  Link YS02001762YS02001759 (20)
  
  
  *************************
  Routing Time Step Summary
  *************************
  Minimum Time Step           :     0.20 sec
  Average Time Step           :     0.87 sec
  Maximum Time Step           :     5.00 sec
  Percent in Steady State     :    -0.00
  Average Iterations per Step :     4.64
  Percent Not Converging      :    30.59
  
  
  ***************************
  Subcatchment Runoff Summary
  ***************************
  
  ------------------------------------------------------------------------------------------------------------------------------
                            Total      Total      Total      Total     Imperv       Perv      Total       Total     Peak  Runoff
                           Precip      Runon       Evap      Infil     Runoff     Runoff     Runoff      Runoff   Runoff   Coeff
  Subcatchment                 mm         mm         mm         mm         mm         mm         mm    10^6 ltr      LPS
  ------------------------------------------------------------------------------------------------------------------------------
  sub0                       7.70       0.00       0.00       0.54       5.90       0.00       5.90        0.00     2.28   0.766
  sub1                       7.70       0.00       0.00       0.85       5.60       0.00       5.60        0.04    12.01   0.727
  sub2                       7.70       0.00       0.00       2.85       3.94       0.00       3.94        0.04    10.62   0.512
  sub3                       7.70       0.00       0.00       2.85       3.91       0.00       3.91        0.09    21.84   0.508
  sub4                       7.70       0.00       0.00       0.85       5.45       0.00       5.45        0.11    24.49   0.708
  sub5                       7.70       0.00       0.00       0.54       5.85       0.00       5.85        0.07    21.36   0.760
  sub7                       7.70       0.00       0.00       0.69       5.75       0.00       5.75        0.02     7.53   0.747
  sub8                       7.70       0.00       0.00       0.69       5.74       0.00       5.74        0.04    13.30   0.746
  sub9                       7.70       0.00       0.00       0.69       5.74       0.00       5.74        0.03     9.86   0.746
  sub10                      7.70       0.00       0.00       0.62       5.79       0.00       5.79        0.06    21.33   0.752
  sub11                      7.70       0.00       0.00       0.62       5.81       0.00       5.81        0.07    25.01   0.754
  sub12                      7.70       0.00       0.00       1.00       5.51       0.00       5.51        0.05    21.13   0.716
  sub14                      7.70       0.00       0.00       0.69       5.74       0.00       5.74        0.05    19.27   0.745
  sub15                      7.70       0.00       0.00       2.31       4.41       0.00       4.41        0.08    26.13   0.573
  sub16                      7.70       0.00       0.00       2.54       4.24       0.00       4.24        0.04    18.58   0.551
  sub17                      7.70       0.00       0.00       2.46       4.30       0.00       4.30        0.04    15.03   0.559
  sub22                      7.70       0.00       0.00       3.31       3.60       0.00       3.60        0.23    85.60   0.468
  sub23                      7.70       0.00       0.00       2.85       3.98       0.00       3.98        0.19    72.88   0.517
  sub60                      7.70       0.00       0.00       0.92       4.16       0.00       4.16        1.26   124.62   0.540
  sub61                      7.70       0.00       0.00       1.31       4.36       0.00       4.36        1.34   156.18   0.566
  sub62                      7.70       0.00       0.00       0.62       4.70       0.00       4.70        1.44   159.65   0.610
  sub63                      7.70       0.00       0.00       2.23       3.85       0.00       3.85        1.17   145.76   0.500
  sub64                      7.70       0.00       0.00       1.15       3.98       0.00       3.98        1.21   118.39   0.517
  sub65                      7.70       0.00       0.00       1.00       4.03       0.00       4.03        1.24   120.16   0.524
  sub66                      7.70       0.00       0.00       2.23       3.45       0.00       3.45        1.06   108.45   0.448
  sub67                      7.70       0.00       0.00       0.62       5.08       0.00       5.08        1.57   204.88   0.660
  sub68                      7.70       0.00       0.00       1.08       4.61       0.00       4.61        1.42   172.66   0.599
  sub69                      7.70       0.00       0.00       1.15       4.90       0.00       4.90        1.14   171.52   0.636
  sub70                      7.70       5.00       0.00       4.32       6.24       0.00       6.24        1.43   142.17   0.491
  sub71                      7.70       0.00       0.00       0.62       4.52       0.00       4.52        1.07   111.46   0.588
  sub72                      7.70       0.00       0.00       0.54       3.34       0.00       3.34        0.68    53.99   0.434
  sub73                      7.70       6.07       0.00       4.68       6.53       0.00       6.53        1.53   124.36   0.474
  sub74                      7.70       0.00       0.00       5.77       1.47       0.00       1.47        0.59    95.72   0.191
  
  
  ******************
  Node Depth Summary
  ******************
  
  ---------------------------------------------------------------------------------
                                 Average  Maximum  Maximum  Time of Max    Reported
                                   Depth    Depth      HGL   Occurrence   Max Depth
  Node                 Type       Meters   Meters   Meters  days hr:min      Meters
  ---------------------------------------------------------------------------------
  WS02001211           JUNCTION     0.66     0.79     5.62     0  02:51        0.79
  WS02001212           JUNCTION     0.39     0.50     5.56     0  02:51        0.50
  WS02001213           JUNCTION     0.62     0.75     5.51     0  02:51        0.75
  WS02003069           JUNCTION     0.44     0.57     5.16     0  02:52        0.57
  WS02003072           JUNCTION     0.51     0.63     5.00     0  02:53        0.63
  WS02003073           JUNCTION     0.31     0.39     4.45     0  02:54        0.39
  WS02003060           JUNCTION     0.39     0.51     5.44     0  02:52        0.51
  WS02003066           JUNCTION     0.23     0.31     5.87     0  02:28        0.31
  WS02003059           JUNCTION     0.68     0.80     5.49     0  02:52        0.80
  WS02003067           JUNCTION     0.58     0.72     6.04     0  02:28        0.72
  WS02004401           JUNCTION     0.68     0.91     6.91     0  02:24        0.91
  WS02004402           JUNCTION     0.71     0.93     6.89     0  02:24        0.93
  WS02004403           JUNCTION     0.73     0.94     6.87     0  02:24        0.94
  WS02004404           JUNCTION     0.80     1.02     6.87     0  02:25        1.01
  WS02004406           JUNCTION     0.81     0.99     6.82     0  02:25        0.99
  WS02004409           JUNCTION     0.50     0.71     6.48     0  02:27        0.71
  WS02004410           JUNCTION     0.51     0.72     6.44     0  02:27        0.72
  WS02004411           JUNCTION     0.53     0.73     6.41     0  02:27        0.73
  WS02004412           JUNCTION     0.55     0.73     6.37     0  02:27        0.73
  WS02004413           JUNCTION     0.70     0.89     6.36     0  02:28        0.89
  WS02004405           JUNCTION     0.80     1.00     6.85     0  02:25        1.00
  WS02006109           JUNCTION     0.76     1.06     7.68     0  02:18        1.06
  WS02006110           JUNCTION     0.76     0.99     7.57     0  02:18        0.99
  WS02006111           JUNCTION     0.22     0.31     7.01     0  02:20        0.31
  WS02006112           JUNCTION     0.85     1.20     7.08     0  02:25        1.14
  WS02006113           JUNCTION     0.34     0.49     7.38     0  02:18        0.49
  WS02006115           JUNCTION     0.57     0.82     6.96     0  02:25        0.82
  WS02006116           JUNCTION     0.65     0.89     6.93     0  02:24        0.89
  WS02006230           JUNCTION     0.74     1.16     7.91     0  02:18        1.12
  WS02006231           JUNCTION     0.50     0.88     8.00     0  02:18        0.77
  WS02006232           JUNCTION     0.63     0.99     8.03     0  02:18        0.90
  WS02006234           JUNCTION     0.55     0.89     8.05     0  02:18        0.84
  WS02006235           JUNCTION     0.59     0.89     8.05     0  02:18        0.85
  WS02006238           JUNCTION     0.61     0.91     8.05     0  02:18        0.87
  WS02006240           JUNCTION     0.51     0.88     8.17     0  02:18        0.76
  WS02006242           JUNCTION     0.57     1.08     8.35     0  02:18        0.82
  WS02006243           JUNCTION     0.45     0.72     8.14     0  02:40        0.71
  WS02006245           JUNCTION     0.42     0.68     8.17     0  02:40        0.68
  WS02006247           JUNCTION     0.44     0.69     8.19     0  02:40        0.69
  WS02006248           JUNCTION     0.39     0.62     8.21     0  02:40        0.62
  WS02006249           JUNCTION     0.41     0.63     8.23     0  02:40        0.63
  WS02006239           JUNCTION     0.57     0.91     8.12     0  02:18        0.82
  WS02006251           JUNCTION     0.41     0.66     8.33     0  02:40        0.66
  WS02006252           JUNCTION     0.36     0.59     8.83     0  04:29        0.59
  WS02006253           JUNCTION     0.43     0.69     8.33     0  02:40        0.69
  WS02006256           JUNCTION     1.04     1.21     8.15     0  02:40        1.21
  WS02004138           JUNCTION     0.15     0.19     7.44     0  01:30        0.19
  WS02004407           JUNCTION     0.22     0.31     6.63     0  02:25        0.31
  WS02006228           JUNCTION     0.77     1.13     7.78     0  02:18        1.10
  WS02006229           JUNCTION     0.74     1.13     7.83     0  02:18        1.11
  WS02006280           JUNCTION     0.06     0.18     8.45     0  02:14        0.18
  WS02006284           JUNCTION     0.36     0.53     8.93     0  02:14        0.53
  WS02006287           JUNCTION     0.09     0.27     9.22     0  02:13        0.27
  WSF200               JUNCTION     0.22     0.33     5.57     0  02:28        0.33
  HS02004901           JUNCTION     0.12     0.28    10.10     0  02:11        0.28
  HS02004881           JUNCTION     0.01     0.03     9.06     0  02:14        0.03
  HS02004876           JUNCTION     0.04     0.11     9.14     0  02:08        0.11
  HS02004870           JUNCTION     0.01     0.06     9.34     0  02:14        0.06
  HS02004862           JUNCTION     0.02     0.06     9.45     0  02:15        0.06
  HS02004856           JUNCTION     0.08     0.12     9.54     0  02:14        0.12
  HS02004852           JUNCTION     0.01     0.04     9.55     0  02:15        0.04
  HS02004848           JUNCTION     0.01     0.04     9.64     0  02:14        0.04
  HS02004842           JUNCTION     0.33     0.37     9.64     0  02:14        0.37
  HS02004837           JUNCTION     0.03     0.06     9.64     0  02:14        0.06
  HS02004830           JUNCTION     0.04     0.07     9.54     0  02:14        0.07
  HS02004824           JUNCTION     0.02     0.05     9.45     0  02:17        0.05
  HS02004817           JUNCTION     0.43     0.57     9.42     0  02:14        0.57
  HS02004807           JUNCTION     0.12     0.25     9.42     0  02:14        0.25
  HS02004802           JUNCTION     0.16     0.28     9.41     0  02:14        0.28
  HS02004799           JUNCTION     0.11     0.32     9.53     0  02:12        0.32
  HS02004792           JUNCTION     0.03     0.13     9.66     0  02:12        0.13
  HS02004788           JUNCTION     0.02     0.10    10.00     0  02:12        0.10
  HS02004785           JUNCTION     0.04     0.17    10.07     0  02:12        0.17
  HS02004777           JUNCTION     0.14     0.29    10.09     0  02:12        0.29
  HS02004770           JUNCTION     0.11     0.27    10.10     0  02:11        0.27
  HS02004480           JUNCTION     0.07     0.26     9.50     0  02:13        0.26
  HS02004479           JUNCTION     0.11     0.29     9.50     0  02:13        0.29
  HS02004478           JUNCTION     0.06     0.17     9.40     0  02:14        0.17
  YS02001745           JUNCTION     0.51     0.82     8.33     0  07:38        0.82
  YS02001748           JUNCTION     0.90     1.35     8.43     0  04:13        1.26
  YS02001751           JUNCTION     1.08     2.20     9.08     0  03:26        1.45
  YS02001754           JUNCTION     1.34     2.12     8.72     0  03:26        1.73
  YS02001762           JUNCTION     1.53     1.95     8.35     0  05:57        1.94
  YS02001765           JUNCTION     1.49     1.91     8.36     0  05:57        1.89
  YS02001767           JUNCTION     1.45     1.87     8.36     0  05:57        1.85
  YS02001770           JUNCTION     1.45     1.87     8.37     0  05:57        1.85
  YS02001774           JUNCTION     1.51     1.95     8.37     0  05:57        1.92
  YS02001779           JUNCTION     1.27     1.68     8.37     0  03:20        1.66
  YS02001882           JUNCTION     0.35     0.60     7.32     0  02:45        0.60
  YS02001884           JUNCTION     0.45     0.70     7.31     0  02:45        0.69
  YS02001759           JUNCTION     1.57     1.98     8.35     0  05:57        1.97
  YS02001887           JUNCTION     0.52     0.77     7.31     0  02:44        0.77
  YS02001890           JUNCTION     0.55     0.80     7.31     0  02:45        0.80
  YS02001898           JUNCTION     0.32     0.56     7.29     0  02:47        0.56
  YS02001901           JUNCTION     0.44     0.69     7.29     0  02:47        0.69
  YS02001904           JUNCTION     0.42     0.67     7.30     0  02:46        0.67
  YS02001907           JUNCTION     0.75     1.00     7.29     0  02:46        1.00
  YS02001910           JUNCTION     0.54     0.78     7.29     0  02:48        0.78
  YS02001915           JUNCTION     0.34     0.57     7.29     0  02:49        0.57
  YS02001918           JUNCTION     0.11     0.22     7.29     0  02:45        0.22
  YS02001619           JUNCTION     1.05     1.50     8.43     0  04:07        1.46
  YS02001629           JUNCTION     1.40     1.84     8.39     0  04:07        1.84
  YS02001641           JUNCTION     1.51     1.93     8.37     0  06:50        1.93
  YS02001644           JUNCTION     1.51     1.92     8.35     0  04:43        1.92
  YS02001652           JUNCTION     1.35     2.06     8.65     0  03:01        1.76
  YS02001655           JUNCTION     1.11     2.20     9.05     0  03:01        1.53
  YS02001920           JUNCTION     0.21     0.29     7.30     0  02:45        0.29
  YS02001923           JUNCTION     0.08     0.11     7.37     0  03:01        0.11
  YS02001926           JUNCTION     0.17     0.21     7.66     0  03:01        0.21
  YS02001929           JUNCTION     0.08     0.11     7.80     0  03:01        0.11
  YS02001658           JUNCTION     0.85     1.25     8.39     0  04:47        1.23
  YS02001661           JUNCTION     0.62     0.99     8.40     0  04:46        0.98
  YS02001664           JUNCTION     0.24     0.49     8.41     0  04:46        0.49
  YS02001622           JUNCTION     1.07     1.52     8.42     0  04:07        1.48
  YS02001633           JUNCTION     1.49     1.94     8.39     0  07:39        1.93
  YS02001649           JUNCTION     1.54     1.96     8.35     0  05:51        1.96
  YS02001757           JUNCTION     1.67     2.08     8.35     0  05:53        2.07
  YS02001895           JUNCTION     0.32     0.55     7.30     0  02:44        0.55
  YS02001625           JUNCTION     1.35     1.78     8.38     0  04:06        1.78
  YS02163301           JUNCTION     1.43     1.87     8.39     0  07:39        1.87
  YS02163601           JUNCTION     1.55     1.98     8.38     0  07:39        1.98
  YS02164001           JUNCTION     1.49     1.91     8.37     0  07:39        1.91
  YS02001647           JUNCTION     1.34     1.75     8.36     0  05:53        1.74
  YSB1154              JUNCTION     0.25     0.44     9.50     0  02:13        0.44
  YSB6556              JUNCTION     0.14     0.33     9.50     0  02:12        0.33
  YSB1174              JUNCTION     0.20     0.39     9.50     0  02:13        0.39
  YSB1171              JUNCTION     0.40     0.60     9.50     0  02:13        0.60
  YS02006553           JUNCTION     0.75     1.05     7.34     0  02:43        1.01
  YS02006561           JUNCTION     0.18     0.32     6.98     0  02:47        0.32
  YS02006556           JUNCTION     0.73     0.98     7.29     0  02:49        0.98
  YS02006558           JUNCTION     0.77     1.02     7.29     0  02:47        1.02
  YS02001783           JUNCTION     0.32     0.70     6.84     0  03:15        0.70
  YS02001784           JUNCTION     0.36     0.76     6.83     0  03:16        0.74
  YS02001786           JUNCTION     0.31     0.75     6.78     0  03:16        0.75
  YS02001788           JUNCTION     0.25     0.77     6.74     0  03:15        0.74
  YS02001790           JUNCTION     0.33     1.29     6.94     0  03:46        1.04
  YS02001791           JUNCTION     0.28     1.25     6.72     0  03:46        1.17
  YS02001793           JUNCTION     0.36     3.56     8.39     0  03:04        1.78
  WS02004139           JUNCTION     0.60     0.73     5.64     0  02:50        0.73
  WSC                  OUTFALL      0.31     0.39     1.06     0  02:54        0.39
  3                    OUTFALL      0.09     0.21     6.21     0  02:40        0.21
  4                    OUTFALL      0.03     0.13     7.13     0  02:40        0.13
  5                    OUTFALL      0.00     0.00     5.00     0  00:00        0.00
  JK-storage           STORAGE      1.67     5.80     6.60     0  03:14        5.80
  CC-storage           STORAGE      0.89     1.33     8.33     0  07:36        1.33
  XR-storage           STORAGE      6.37     7.72     5.72     0  03:43        7.72
  
  
  *******************
  Node Inflow Summary
  *******************
  
  -------------------------------------------------------------------------------------------------
                                  Maximum  Maximum                  Lateral       Total        Flow
                                  Lateral    Total  Time of Max      Inflow      Inflow     Balance
                                   Inflow   Inflow   Occurrence      Volume      Volume       Error
  Node                 Type           LPS      LPS  days hr:min    10^6 ltr    10^6 ltr     Percent
  -------------------------------------------------------------------------------------------------
  WS02001211           JUNCTION      7.35   382.30     0  01:50       0.207         7.1       0.512
  WS02001212           JUNCTION      0.00   378.93     0  01:51           0        7.06       0.312
  WS02001213           JUNCTION      0.00   378.37     0  01:51           0        7.04       0.280
  WS02003069           JUNCTION      0.32   919.19     0  02:52     0.00902        14.6       0.177
  WS02003072           JUNCTION      0.00   918.88     0  02:53           0        14.5       0.223
  WS02003073           JUNCTION      1.82   920.48     0  02:53      0.0514        14.6       0.246
  WS02003060           JUNCTION     16.53   919.04     0  02:52       0.466        14.6       0.170
  WS02003066           JUNCTION      0.00   600.64     0  02:28           0        7.14       0.049
  WS02003059           JUNCTION      0.00   377.83     0  02:52           0        7.02       0.531
  WS02003067           JUNCTION      0.00   600.51     0  02:28           0        7.15       0.108
  WS02004401           JUNCTION      0.00   607.33     0  02:24           0        7.35       0.264
  WS02004402           JUNCTION      0.00   607.58     0  02:24           0        7.33       0.251
  WS02004403           JUNCTION      0.00   606.76     0  02:24           0        7.31       0.230
  WS02004404           JUNCTION      0.16   607.89     0  02:25     0.00457         7.3       0.176
  WS02004406           JUNCTION      0.00   606.63     0  02:25           0        7.27       0.429
  WS02004409           JUNCTION      0.00   605.57     0  02:25           0        7.23       0.176
  WS02004410           JUNCTION      0.00   602.59     0  02:26           0        7.22       0.200
  WS02004411           JUNCTION      0.00   601.67     0  02:27           0         7.2       0.207
  WS02004412           JUNCTION      0.00   600.87     0  02:27           0        7.19       0.229
  WS02004413           JUNCTION      0.00   600.76     0  02:27           0        7.17       0.350
  WS02004405           JUNCTION      0.04   609.73     0  02:25     0.00107        7.29       0.264
  WS02006109           JUNCTION      1.23   615.90     0  02:18      0.0347        7.43       0.240
  WS02006110           JUNCTION      0.00   615.89     0  02:18           0        7.41       0.271
  WS02006111           JUNCTION      0.00   639.54     0  02:18           0        7.38       0.056
  WS02006112           JUNCTION     15.03   629.20     0  02:20      0.0369        7.41       0.377
  WS02006113           JUNCTION      0.00   617.40     0  02:18           0        7.39       0.123
  WS02006115           JUNCTION      0.00   636.50     0  02:21           0        7.38       0.247
  WS02006116           JUNCTION      0.00   611.39     0  02:22           0        7.37       0.218
  WS02006230           JUNCTION     10.28   397.93     0  04:59        0.29        6.25       0.199
  WS02006231           JUNCTION      0.00   388.06     0  04:56           0        5.96       0.171
  WS02006232           JUNCTION      0.00   388.10     0  04:56           0        5.98       0.258
  WS02006234           JUNCTION      0.00   389.59     0  04:54           0        5.98       0.129
  WS02006235           JUNCTION      0.00   390.38     0  04:53           0        6.03       0.166
  WS02006238           JUNCTION      0.00   314.02     0  06:10           0        4.03       0.182
  WS02006240           JUNCTION      0.00   314.68     0  04:51           0        4.02       0.277
  WS02006242           JUNCTION      0.00   323.78     0  04:51           0        4.02       0.345
  WS02006243           JUNCTION      0.00   334.36     0  04:51           0           4      -0.143
  WS02006245           JUNCTION      0.00   339.92     0  04:51           0        4.01       0.277
  WS02006247           JUNCTION      0.00   346.25     0  04:51           0        4.02       0.156
  WS02006248           JUNCTION      0.00   351.98     0  04:50           0        4.02       0.046
  WS02006249           JUNCTION      0.00   432.51     0  02:40           0        4.52       0.295
  WS02006239           JUNCTION      0.00   313.69     0  06:10           0        4.02       0.271
  WS02006251           JUNCTION      0.08   433.39     0  02:40     0.00217        4.56       0.183
  WS02006252           JUNCTION      0.00   400.00     0  03:00           0        4.32       0.010
  WS02006253           JUNCTION      2.28    67.60     0  02:14     0.00477       0.239       1.513
  WS02006256           JUNCTION      0.00   600.00     0  02:30           0        5.33       0.047
  WS02004138           JUNCTION      0.00   379.98     0  05:30           0        6.92       0.063
  WS02004407           JUNCTION      0.00   605.83     0  02:25           0        7.24       0.085
  WS02006228           JUNCTION      0.00   614.60     0  02:18           0         7.4       0.185
  WS02006229           JUNCTION      0.00   619.48     0  02:18           0        7.42       0.183
  WS02006280           JUNCTION      0.00   336.70     0  02:14           0        1.19       0.006
  WS02006284           JUNCTION      0.10   336.64     0  02:14      0.0027        1.19       0.095
  WS02006287           JUNCTION      0.00   336.53     0  02:14           0        1.19       0.061
  WSF200               JUNCTION      0.00   600.72     0  02:28           0        7.14       0.042
  HS02004901           JUNCTION     18.58    18.58     0  02:08      0.0444      0.0445       4.109
  HS02004881           JUNCTION      7.53    65.87     0  02:14      0.0194       0.207       0.199
  HS02004876           JUNCTION     12.01    59.05     0  02:14      0.0372       0.188       0.285
  HS02004870           JUNCTION     13.30    47.29     0  02:14      0.0367       0.151       0.070
  HS02004862           JUNCTION     10.82    34.86     0  02:14      0.0424       0.114       0.149
  HS02004856           JUNCTION      9.86    24.13     0  02:14      0.0276      0.0735       2.001
  HS02004852           JUNCTION      0.00    14.89     0  02:14           0      0.0459       0.114
  HS02004848           JUNCTION     21.84    21.84     0  02:16      0.0879      0.0879       0.049
  HS02004842           JUNCTION      0.00     7.81     0  02:26           0       0.055      30.938
  HS02004837           JUNCTION     27.68    33.96     0  02:13       0.243       0.285       0.284
  HS02004830           JUNCTION      0.15    34.09     0  02:14     0.00423       0.275       0.450
  HS02004824           JUNCTION     24.54    58.34     0  02:17       0.115       0.389       0.138
  HS02004817           JUNCTION      0.60    58.92     0  02:17      0.0169       0.406       4.286
  HS02004807           JUNCTION     25.01    81.76     0  02:15      0.0674       0.456       0.934
  HS02004802           JUNCTION      0.00    82.40     0  02:16           0       0.452       0.906
  HS02004799           JUNCTION     19.27   217.43     0  02:12      0.0546        0.64       0.357
  HS02004792           JUNCTION     85.88   198.49     0  02:11       0.235       0.586       0.068
  HS02004788           JUNCTION     27.80   115.36     0  02:12       0.123       0.352       0.110
  HS02004785           JUNCTION      0.15    87.97     0  02:11     0.00423       0.231       0.210
  HS02004777           JUNCTION      0.03    88.42     0  02:10    0.000846       0.232       2.287
  HS02004770           JUNCTION     72.88    89.88     0  02:09        0.19       0.232       1.347
  HS02004480           JUNCTION      0.00   256.48     0  02:13           0       0.752       0.104
  HS02004479           JUNCTION      0.00    39.94     0  02:14           0       0.124       0.593
  HS02004478           JUNCTION      0.00   336.51     0  02:14           0        1.19       0.051
  YS02001745           JUNCTION    124.63   186.02     0  04:05        1.26        1.28       0.864
  YS02001748           JUNCTION      0.04   406.71     0  03:09     0.00127         1.3       1.804
  YS02001751           JUNCTION      0.01   450.21     0  03:10     0.00031        1.25       1.816
  YS02001754           JUNCTION      0.26   209.66     0  03:10     0.00733        1.21       1.940
  YS02001762           JUNCTION      0.00   180.16     0  02:52           0        1.38       1.526
  YS02001765           JUNCTION      0.00   183.84     0  02:30           0        1.38       1.783
  YS02001767           JUNCTION      0.54   185.09     0  02:28      0.0151         1.4       2.609
  YS02001770           JUNCTION    159.80   195.15     0  02:26        1.45        1.47       2.115
  YS02001774           JUNCTION      0.00    65.38     0  02:11           0      0.0786      46.623
  YS02001779           JUNCTION      0.01    41.57     0  02:33    0.000141      0.0329      77.008
  YS02001882           JUNCTION      0.00     8.74     0  02:59           0      0.0105      21.653
  YS02001884           JUNCTION      0.00    17.98     0  02:04           0      0.0353      17.628
  YS02001759           JUNCTION    156.22   333.20     0  02:52        1.34        2.69       0.848
  YS02001887           JUNCTION    205.33   216.53     0  02:39        1.58         1.6       0.477
  YS02001890           JUNCTION      0.00   213.36     0  02:39           0        1.56       0.533
  YS02001898           JUNCTION      0.00   216.45     0  02:46           0        1.55       0.164
  YS02001901           JUNCTION      0.00   218.64     0  02:40           0        1.55       0.385
  YS02001904           JUNCTION      0.00   225.76     0  02:46           0        1.55       0.357
  YS02001907           JUNCTION      0.00   416.36     0  02:46           0        3.36       0.681
  YS02001910           JUNCTION      0.00   188.66     0  02:55           0        1.82       0.591
  YS02001915           JUNCTION    111.48   174.28     0  02:50        1.07        1.83       0.278
  YS02001918           JUNCTION      0.00    59.06     0  03:04           0       0.758       0.184
  YS02001619           JUNCTION    108.45   108.45     0  02:49        1.06        1.06       1.127
  YS02001629           JUNCTION      0.00   201.87     0  03:01           0       0.985       2.929
  YS02001641           JUNCTION      0.00   267.25     0  02:30           0        2.13       0.984
  YS02001644           JUNCTION    118.43   381.35     0  02:30        1.21        3.31       0.789
  YS02001652           JUNCTION      0.00   218.20     0  02:27           0        1.11       2.099
  YS02001655           JUNCTION      0.15   392.81     0  03:01     0.00434        1.14       2.037
  YS02001920           JUNCTION      2.87    56.87     0  03:01      0.0809       0.761       0.311
  YS02001923           JUNCTION      0.04    54.00     0  03:01     0.00106        0.68       0.056
  YS02001926           JUNCTION      0.05    54.02     0  03:01     0.00147       0.682       0.386
  YS02001929           JUNCTION     53.99    53.99     0  03:01       0.681       0.681       0.054
  YS02001658           JUNCTION      0.00   380.18     0  03:53           0        1.26       1.381
  YS02001661           JUNCTION      0.00   327.46     0  03:52           0        1.68       1.048
  YS02001664           JUNCTION    145.76   274.09     0  04:39        1.17        1.57       0.378
  YS02001622           JUNCTION      0.00   148.92     0  03:01           0        1.05       3.115
  YS02001633           JUNCTION    120.36   284.06     0  02:29        1.25        2.19       1.475
  YS02001649           JUNCTION      0.00   561.52     0  02:28           0        4.32       0.855
  YS02001757           JUNCTION      0.00   987.90     0  02:28           0         8.1       1.135
  YS02001895           JUNCTION      0.00   212.92     0  02:39           0        1.56       0.269
  YS02001625           JUNCTION      0.00   201.96     0  02:59           0        1.02       3.982
  YS02163301           JUNCTION      0.00   169.61     0  02:29           0       0.973       2.469
  YS02163601           JUNCTION      0.11   277.17     0  02:29      0.0031        2.14       1.406
  YS02164001           JUNCTION      0.00   272.30     0  02:29           0        2.12       0.939
  YS02001647           JUNCTION      0.00   384.65     0  02:30           0        3.26       0.823
  YSB1154              JUNCTION     21.36    21.36     0  02:12      0.0662      0.0675       2.182
  YSB6556              JUNCTION      0.00    21.33     0  02:12           0      0.0685       1.856
  YSB1174              JUNCTION     21.13    21.13     0  02:07      0.0481      0.0491       2.680
  YSB1171              JUNCTION      0.00    39.84     0  02:12           0       0.123       5.412
  YS02006553           JUNCTION      0.00   405.88     0  02:43           0        3.35       0.436
  YS02006561           JUNCTION      0.00   605.69     0  02:43           0        4.74      -0.004
  YS02006556           JUNCTION      0.00   392.46     0  02:46           0        3.36       0.319
  YS02006558           JUNCTION    173.54   580.38     0  02:46        1.44        4.77       0.117
  YS02001783           JUNCTION      0.00   558.32     0  02:47           0        4.74       0.038
  YS02001784           JUNCTION      1.06   555.54     0  02:45      0.0299        4.76       0.060
  YS02001786           JUNCTION      0.06   549.73     0  02:45     0.00159        4.76       0.059
  YS02001788           JUNCTION      0.07   548.00     0  02:38       0.002        4.76       0.036
  YS02001790           JUNCTION      0.15   550.39     0  02:38     0.00437        4.77       0.040
  YS02001791           JUNCTION      0.00   547.40     0  02:39           0        4.76       0.020
  YS02001793           JUNCTION      0.00   960.55     0  03:04           0        4.79      -0.028
  WS02004139           JUNCTION      0.32   379.84     0  01:30     0.00905        6.93       0.543
  WSC                  OUTFALL       0.00   920.13     0  02:54           0        14.5       0.000
  3                    OUTFALL       0.00   519.88     0  02:40           0        3.29       0.000
  4                    OUTFALL       0.00   161.98     0  02:40           0        0.49       0.000
  5                    OUTFALL       0.00     0.00     0  00:00           0           0       0.000 ltr
  JK-storage           STORAGE       0.00  1357.79     0  03:03           0        4.94     -12.332
  CC-storage           STORAGE       0.00   988.36     0  02:28           0           8       0.552
  XR-storage           STORAGE     401.86   401.86     0  02:45        7.76        8.36      -0.002
  
  
  **********************
  Node Surcharge Summary
  **********************
  
  Surcharging occurs when water rises above the top of the highest conduit.
  ---------------------------------------------------------------------
                                               Max. Height   Min. Depth
                                   Hours       Above Crown    Below Rim
  Node                 Type      Surcharged         Meters       Meters
  ---------------------------------------------------------------------
  WS02004404           JUNCTION        0.12          0.017        2.763
  WS02004405           JUNCTION        0.01          0.002        2.798
  WS02006109           JUNCTION        2.21          0.242        1.578
  WS02006110           JUNCTION        0.48          0.077        1.773
  WS02006112           JUNCTION        0.78          0.201        1.479
  WS02006230           JUNCTION        0.12          0.082        1.488
  WS02006231           JUNCTION        0.34          0.169        1.361
  WS02006232           JUNCTION        2.22          0.287        1.193
  WS02006234           JUNCTION        0.69          0.172        1.068
  WS02006235           JUNCTION        1.60          0.178        1.112
  WS02006238           JUNCTION        1.93          0.186        1.244
  WS02006240           JUNCTION        0.69          0.166        1.224
  WS02006242           JUNCTION        1.57          0.353        0.467
  WS02006243           JUNCTION        0.04          0.005        0.765
  WS02006239           JUNCTION        0.86          0.171        1.119
  WS02006252           JUNCTION        2.08          0.193        0.907
  WS02006228           JUNCTION        2.11          0.296        1.904
  YS02001748           JUNCTION        3.56          0.274        0.916
  YS02001751           JUNCTION        4.21          1.200        0.000
  YS02001754           JUNCTION        5.13          1.066        0.084
  YS02001762           JUNCTION        5.48          0.954        0.196
  YS02001765           JUNCTION        5.46          0.910        0.190
  YS02001767           JUNCTION        5.40          0.874        0.156
  YS02001770           JUNCTION        5.32          0.842        0.078
  YS02001774           JUNCTION        5.48          0.949        0.101
  YS02001779           JUNCTION        5.01          0.680        0.000
  YS02001759           JUNCTION        5.49          0.984        0.226
  YS02001619           JUNCTION        4.08          0.505        0.105
  YS02001629           JUNCTION        4.12          0.463        0.007
  YS02001641           JUNCTION        5.47          0.930        0.170
  YS02001644           JUNCTION        5.47          0.920        0.000
  YS02001652           JUNCTION        5.23          1.026        0.104
  YS02001655           JUNCTION        4.31          1.200        0.000
  YS02001658           JUNCTION        3.57          0.247        1.053
  YS02001622           JUNCTION        4.17          0.519        0.101
  YS02001633           JUNCTION        5.44          0.916        0.144
  YS02001649           JUNCTION        5.48          0.962        0.088
  YS02001757           JUNCTION        5.53          1.085        0.125
  YS02001625           JUNCTION        5.25          0.780        0.000
  YS02163301           JUNCTION        5.38          0.874        0.156
  YS02163601           JUNCTION        5.47          0.983        0.097
  YS02164001           JUNCTION        5.45          0.914        0.186
  YS02001647           JUNCTION        5.24          0.745        0.155
  YS02006553           JUNCTION        0.04          0.053        1.137
  YS02001790           JUNCTION        0.49          0.490        0.667
  YS02001791           JUNCTION        0.59          0.451        1.469
  YS02001793           JUNCTION        0.90          2.557        0.043
  
  
  *********************
  Node Flooding Summary
  *********************
  
  Flooding refers to all water that overflows a node, whether it ponds or not.
  --------------------------------------------------------------------------
                                                             Total   Maximum
                                 Maximum   Time of Max       Flood    Ponded
                        Hours       Rate    Occurrence      Volume     Depth
  Node                 Flooded       LPS   days hr:min    10^6 ltr    Meters
  --------------------------------------------------------------------------
  YS02001751              0.01    123.33      0  03:26       0.000     0.000
  YS02001779              0.01      2.05      0  03:20       0.000     0.000
  YS02001644              0.04      4.87      0  05:44       0.000     0.000
  YS02001655              0.01    186.92      0  03:01       0.000     0.000
  YS02001625              0.02      7.25      0  04:07       0.000     0.000
  JK-storage              0.33    428.11      0  03:20       0.284     0.000
  XR-storage              1.34    308.12      0  04:20       0.571     0.000
  
  
  **********************
  Storage Volume Summary
  **********************
  
  --------------------------------------------------------------------------------------------------
                         Average     Avg  Evap Exfil       Maximum     Max    Time of Max    Maximum
                          Volume    Pcnt  Pcnt  Pcnt        Volume    Pcnt     Occurrence    Outflow
  Storage Unit           1000 m3    Full  Loss  Loss       1000 m3    Full    days hr:min        LPS
  --------------------------------------------------------------------------------------------------
  JK-storage               0.084      29     0     0         0.291     100       0  03:14     905.72
  CC-storage               2.481      16     0     0         3.694      24       0  07:36     400.00
  XR-storage               0.764      82     0     0         0.926     100       0  03:43     379.98
  
  
  ***********************
  Outfall Loading Summary
  ***********************
  
  -----------------------------------------------------------
                         Flow       Avg       Max       Total
                         Freq      Flow      Flow      Volume
  Outfall Node           Pcnt       LPS       LPS    10^6 ltr
  -----------------------------------------------------------
  WSC                  100.00    595.96    920.13      14.526
  3                     83.62    203.63    519.88       3.289
  4                     43.01     58.01    161.98       0.490
  5                      0.00      0.00      0.00       0.000
  -----------------------------------------------------------
  System                56.66    857.60   1561.80      18.305
  
  
  ********************
  Link Flow Summary
  ********************
  
  -----------------------------------------------------------------------------
                                 Maximum  Time of Max   Maximum    Max/    Max/
                                  |Flow|   Occurrence   |Veloc|    Full    Full
  Link                 Type          LPS  days hr:min     m/sec    Flow   Depth
  -----------------------------------------------------------------------------
  WS02003066WSF200     CONDUIT    600.72     0  02:28      2.76    0.10    0.25
  WS02006287WS02006284 CONDUIT    336.55     0  02:14      1.91    0.16    0.28
  WS02006284WS02006280 CONDUIT    336.70     0  02:14      2.15    0.14    0.25
  WS02006280WS02006229 CONDUIT    336.70     0  02:14      3.46    0.07    0.18
  WS02006229WS02006228 CONDUIT    614.60     0  02:18      1.22    2.04    1.00
  WS02006256WS02006235 CONDUIT    149.95     0  00:15      2.14    1.59    1.00
  WS02006253WS02006251 CONDUIT     73.45     0  02:16      0.59    0.22    0.96
  WS02006252WS02006251 CONDUIT    400.37     0  05:09      3.19    1.47    1.00
  WS02006251WS02006249 CONDUIT    432.51     0  02:40      1.17    1.25    0.92
  WS02006249WS02006248 CONDUIT    351.98     0  04:50      1.23    1.93    0.88
  WS02006248WS02006247 CONDUIT    346.25     0  04:51      1.20    0.75    0.93
  WS02006247WS02006245 CONDUIT    339.92     0  04:51      1.17    2.70    0.97
  WS02006245WS02006243 CONDUIT    334.36     0  04:51      1.21    0.99    0.99
  WS02006243WS02006242 CONDUIT    323.78     0  04:51      1.00    0.69    1.00
  WS02006242WS02006240 CONDUIT    314.68     0  04:51      0.86    1.25    1.00
  WS02006240WS02006239 CONDUIT    313.69     0  06:10      0.86    0.99    1.00
  WS02006239WS02006238 CONDUIT    314.02     0  06:10      0.83    1.00    1.00
  WS02006238WS02006235 CONDUIT    313.98     0  06:10      0.84    0.70    1.00
  WS02006235WS02006234 CONDUIT    389.59     0  04:54      1.04    4.11    1.00
  WS02006234WS02006232 CONDUIT    388.10     0  04:56      1.01    0.79    1.00
  WS02006232WS02006231 CONDUIT    388.06     0  04:56      1.06    0.81    1.00
  WS02006231WS02006230 CONDUIT    387.65     0  04:59      1.35    5.88    1.00
  WS02006230WS02006229 CONDUIT    397.96     0  04:59      1.03    8.86    1.00
  WS02006228WS02006109 CONDUIT    614.67     0  02:18      1.22    2.69    1.00
  WS02006116WS02004401 CONDUIT    607.33     0  02:24      0.85    0.84    0.90
  WS02006115WS02006116 CONDUIT    611.39     0  02:22      0.97    0.78    0.82
  WS02006113WS02006111 CONDUIT    639.54     0  02:18      2.58    0.77    0.50
  WS02006112WS02006115 CONDUIT    636.50     0  02:21      0.88    0.38    0.90
  WS02006111WS02006112 CONDUIT    618.59     0  02:20      1.68    0.29    0.69
  WS02006110WS02006113 CONDUIT    617.40     0  02:18      1.43    0.56    0.81
  WS02006109WS02006110 CONDUIT    615.89     0  02:18      1.23    1.18    1.00
  WS02004411WS02004412 CONDUIT    600.87     0  02:27      0.98    0.85    0.73
  WS02004401WS02004402 CONDUIT    607.58     0  02:24      0.83    0.73    0.92
  WS02004413WS02003067 CONDUIT    600.51     0  02:28      1.18    0.26    0.62
  WS02004412WS02004413 CONDUIT    600.76     0  02:27      0.88    0.40    0.81
  WS02004410WS02004411 CONDUIT    601.67     0  02:27      0.99    0.82    0.73
  WS02004409WS02004410 CONDUIT    602.59     0  02:26      1.04    0.78    0.72
  WS02004407WS02004409 CONDUIT    605.57     0  02:25      1.58    0.21    0.51
  WS02004406WS02004407 CONDUIT    605.83     0  02:25      1.11    0.27    0.65
  WS02004405WS02004406 CONDUIT    606.63     0  02:25      0.77    1.20    1.00
  WS02004404WS02004405 CONDUIT    609.69     0  02:25      0.96    5.97    1.00
  WS02004403WS02004404 CONDUIT    607.73     0  02:25      0.84    0.44    0.97
  WS02004402WS02004403 CONDUIT    606.76     0  02:24      0.85    0.87    0.94
  WS02004139WS02001211 CONDUIT    374.95     0  01:50      0.69    0.47    0.59
  WS02004138WS02004139 CONDUIT    379.51     0  01:30      2.95    0.08    0.43
  WS02003067WS02003066 CONDUIT    600.64     0  02:28      1.28    0.19    0.43
  WS02001213WS02003059 CONDUIT    377.83     0  02:52      0.68    0.62    0.77
  WS02001212WS02001213 CONDUIT    378.37     0  01:51      1.31    0.58    0.47
  WS02001211WS02001212 CONDUIT    378.93     0  01:51      0.77    0.29    0.64
  WS02003072WS02003073 CONDUIT    918.66     0  02:53      1.71    1.98    0.48
  WS02003069WS02003072 CONDUIT    918.88     0  02:53      1.61    0.44    0.50
  WS02003060WS02003069 CONDUIT    918.87     0  02:52      1.86    0.36    0.45
  WS02003059WS02003060 CONDUIT    378.60     0  02:52      0.93    0.25    0.66
  HS02004901HS02004770 CONDUIT     17.39     0  02:11      0.06    0.07    0.39
  HS02004876HS02004881 CONDUIT     59.04     0  02:14      0.84    0.63    0.10
  HS02004870HS02004876 CONDUIT     47.25     0  02:14      0.57    0.03    0.12
  HS02004842HS02004848 CONDUIT      7.81     0  02:26      0.04    0.00    0.29
  HS02004837HS02004842 CONDUIT      8.13     0  02:26      0.42    0.00    0.31
  HS02004830HS02004837 CONDUIT     33.94     0  02:14      0.51    0.03    0.09
  HS02004824HS02004830 CONDUIT     34.08     0  02:15      0.55    0.04    0.09
  HS02004817HS02004824 CONDUIT     58.32     0  02:17      0.19    0.03    0.44
  HS02004770HS02004777 CONDUIT     88.39     0  02:10      0.32    0.16    0.40
  HS02004799HS02004480 CONDUIT    217.08     0  02:12      0.76    0.27    0.41
  HS02004792HS02004799 CONDUIT    198.39     0  02:12      0.87    0.12    0.33
  HS02004788HS02004792 CONDUIT    115.26     0  02:12      1.00    0.08    0.17
  HS02004785HS02004788 CONDUIT     87.86     0  02:12      0.66    0.66    0.19
  HS02004777HS02004785 CONDUIT     87.82     0  02:11      0.38    0.11    0.33
  HS02004480HS02004478 CONDUIT    256.45     0  02:13      1.18    1.08    0.31
  HS02004479HS02004480 CONDUIT     40.31     0  02:14      0.15    0.04    0.39
  HS02004862HS02004870 CONDUIT     34.82     0  02:15      0.58    0.04    0.09
  HS02004848HS02004852 CONDUIT     14.89     0  02:14      0.39    0.02    0.05
  HS02004856HS02004862 CONDUIT     24.08     0  02:14      0.43    0.02    0.08
  HS02004852HS02004856 CONDUIT     14.84     0  02:15      0.19    0.02    0.11
  HS02004802HS02004478 CONDUIT     83.17     0  02:17      0.38    0.07    0.32
  HS02004478WS02006287 CONDUIT    336.53     0  02:14      1.61    0.09    0.23
  HS02004817HS02004807 CONDUIT     59.99     0  02:18      0.15    0.04    0.59
  HS02004807HS02004802 CONDUIT     82.40     0  02:16      0.32    0.16    0.37
  YS02001759YS02001757 CONDUIT    333.25     0  02:52      0.42    0.24    1.00
  YS02001762YS02001759 CONDUIT    180.26     0  02:52      0.23    0.21    1.00
  YS02001765YS02001762 CONDUIT    180.16     0  02:52      0.23    0.17    1.00
  YS02001770YS02001767 CONDUIT    184.56     0  02:28      0.34    0.73    1.00
  YS02001774YS02001770 CONDUIT     65.38     0  02:11      0.16    0.04    1.00
  YS02001779YS02001774 CONDUIT     43.62     0  02:26      0.10    0.02    1.00
  YS02001649YS02001757 CONDUIT    560.90     0  02:28      0.71    0.34    1.00
  YS02001767YS02001765 CONDUIT    183.84     0  02:30      0.26    0.23    1.00
  YS02006561YS02001783 CONDUIT    558.32     0  02:47      2.06    0.29    0.60
  YS02001783YS02001784 CONDUIT    554.48     0  02:45      1.50    0.76    0.91
  YS02001784YS02001785 CONDUIT    549.68     0  02:45      1.60    1.28    0.94
  YS02001788YS02001790 CONDUIT    550.23     0  02:38      2.15    0.41    0.98
  YS02001790YS02001791 CONDUIT    547.40     0  02:39      2.55    0.60    1.00
  YS02001791YS02001793 CONDUIT    652.02     0  03:04      5.20    0.28    1.00
  YS02001910YS02001907 CONDUIT    186.11     0  02:55      0.49    0.10    0.89
  YS02001786YS02001788 CONDUIT    547.93     0  02:38      2.05    1.06    0.93
  YS02001915YS02001910 CONDUIT    188.66     0  02:55      0.45    0.09    0.68
  YS02001918YS02001915 CONDUIT     62.91     0  02:50      0.44    0.03    0.40
  YS02001923YS02001920 CONDUIT     54.00     0  03:01      0.54    0.02    0.20
  YS02001926YS02001923 CONDUIT     53.96     0  03:01      0.61    0.08    0.17
  YS02001929YS02001926 CONDUIT     53.97     0  03:01      0.66    0.03    0.16
  YS02001920YS02001918 CONDUIT     59.06     0  03:04      0.55    0.06    0.26
  YS02001629YS02163301 CONDUIT    169.61     0  02:29      0.22    0.21    1.00
  YS02001619YS02001622 CONDUIT    148.92     0  03:01      0.77    0.22    1.00
  YS02001622YS02001625 CONDUIT    201.96     0  02:59      0.32    0.11    1.00
  YS02001625YS02001629 CONDUIT    201.87     0  03:01      0.32    0.10    1.00
  YS02163301YS02001633 CONDUIT    174.41     0  02:29      0.22    0.16    1.00
  YS02163601YS02164001 CONDUIT    272.30     0  02:29      0.35    0.24    1.00
  YS02164001YS02001641 CONDUIT    267.25     0  02:30      0.34    0.36    1.00
  YS02001641YS02001644 CONDUIT    272.05     0  02:30      0.35    0.88    1.00
  YS02001647YS02001649 CONDUIT    409.16     0  02:28      0.53    0.22    1.00
  YS02006553YS02006556 CONDUIT    392.46     0  02:46      0.51    0.34    0.97
  YS02006556YS02006558 CONDUIT    409.07     0  02:50      0.52    0.32    0.99
  YSB6556YSB1171       CONDUIT     21.80     0  02:15      0.08    0.02    0.66
  YS02001907YS02006553 CONDUIT    405.88     0  02:43      0.45    0.48    1.00
  YS02006558YS02006561 CONDUIT    605.69     0  02:43      2.96    1.34    0.69
  YS02001633YS02163601 CONDUIT    277.06     0  02:29      0.35    0.29    1.00
  YS02001644YS02001647 CONDUIT    384.65     0  02:30      0.50    0.23    1.00
  YS02001745YS02001748 CONDUIT    267.00     0  02:59      1.58    0.10    0.91
  YS02001748YS02001751 CONDUIT    450.20     0  03:10      1.23    0.23    1.00
  YS02001751YS02001754 CONDUIT    209.40     0  03:10      1.07    0.10    1.00
  YS02001754YS02001757 CONDUIT    216.94     0  03:10      0.33    0.09    1.00
  YS02001882YS02001884 CONDUIT      9.34     0  02:55      0.06    0.01    0.62
  YS02001884YS02001887 CONDUIT     17.98     0  02:04      0.07    0.02    0.71
  YS02001890YS02001895 CONDUIT    212.92     0  02:39      0.38    0.10    0.68
  YS02001895YS02001898 CONDUIT    216.45     0  02:46      0.53    0.38    0.54
  YS02001898YS02001901 CONDUIT    218.64     0  02:40      0.43    0.14    0.62
  YS02001901YS02001904 CONDUIT    225.76     0  02:46      0.41    0.35    0.67
  YS02001904YS02001907 CONDUIT    234.76     0  02:46      0.34    0.08    0.83
  YS02001887YS02001890 CONDUIT    213.36     0  02:39      0.33    0.37    0.76
  YS02001652YS02001649 CONDUIT    217.02     0  03:07      0.38    0.11    1.00
  YS02001655YS02001652 CONDUIT    218.20     0  02:27      1.14    0.11    1.00
  YS02001658YS02001655 CONDUIT    392.66     0  03:01      1.42    0.17    1.00
  YS02001661YS02001658 CONDUIT    380.18     0  03:53      1.65    0.15    0.96
  YS02001664YS02001661 CONDUIT    309.04     0  04:44      1.41    0.10    0.67
  YSB1154YSB6556       CONDUIT     21.33     0  02:12      0.19    0.04    0.55
  YSB1174YSB1171       CONDUIT     19.56     0  02:09      0.08    0.03    0.67
  YSB1171HS02004479    CONDUIT     39.94     0  02:14      0.54    0.03    0.52
  HS02004881HS02006253 CONDUIT     65.86     0  02:14      2.03    0.01    0.27
  YS02001793JiankangQianchi CONDUIT   1357.79     0  03:03     15.74    0.11    1.00
  YS02001757CaochengTiaoxuchi CONDUIT    988.36     0  02:28      2.26    0.43    1.00
  WSF200WS02003060     CONDUIT    601.03     0  02:28      1.73    0.13    0.35
  1                    CONDUIT    920.13     0  02:54      3.25    0.32    0.39
  2                    CONDUIT    161.98     0  02:40      5.53    0.39    0.43
  3                    CONDUIT    519.88     0  02:40      9.87    0.83    0.70
  4                    CONDUIT      0.00     0  00:00      0.00    0.00    0.00
  CC-Pump-1            PUMP       200.00     0  02:40              1.00
  CC-Pump-2            PUMP       200.00     0  02:14              1.00
  JK-Pump-1            PUMP       300.00     0  02:30              1.00
  JK-Pump-2            PUMP       300.00     0  00:20              1.00
  XR-Pump-1            PUMP        95.00     0  00:00              1.00
  XR-Pump-2            PUMP        95.00     0  00:40              1.00
  XR-Pump-3            PUMP        95.00     0  00:00              1.00
  XR-Pump-4            PUMP        95.00     0  01:00              1.00
  
  
  ***************************
  Flow Classification Summary
  ***************************
  
  -------------------------------------------------------------------------------------
                      Adjusted    ---------- Fraction of Time in Flow Class ---------- 
                       /Actual         Up    Down  Sub   Sup   Up    Down  Norm  Inlet 
  Conduit               Length    Dry  Dry   Dry   Crit  Crit  Crit  Crit  Ltd   Ctrl  
  -------------------------------------------------------------------------------------
  WS02003066WSF200        1.00   0.04  0.01  0.00  0.00  0.95  0.00  0.00  0.69  0.00
  WS02006287WS02006284    1.00   0.04  0.01  0.00  0.63  0.32  0.00  0.00  0.76  0.00
  WS02006284WS02006280    1.00   0.04  0.00  0.00  0.00  0.00  0.00  0.96  0.00  0.00
  WS02006280WS02006229    1.00   0.04  0.00  0.00  0.00  0.00  0.00  0.96  0.00  0.00
  WS02006229WS02006228    1.00   0.00  0.00  0.00  1.00  0.00  0.00  0.00  0.00  0.00
  WS02006256WS02006235    1.00   0.00  0.00  0.00  1.00  0.00  0.00  0.00  0.00  0.00
  WS02006253WS02006251    1.00   0.03  0.01  0.00  0.96  0.00  0.00  0.00  0.00  0.00
  WS02006252WS02006251    1.00   0.07  0.00  0.00  0.00  0.00  0.92  0.00  0.00  0.00
  WS02006251WS02006249    1.00   0.00  0.00  0.00  1.00  0.00  0.00  0.00  0.31  0.00
  WS02006249WS02006248    1.00   0.00  0.00  0.00  0.87  0.00  0.13  0.00  0.00  0.00
  WS02006248WS02006247    1.00   0.00  0.00  0.00  0.97  0.00  0.00  0.02  0.22  0.00
  WS02006247WS02006245    1.00   0.00  0.00  0.00  0.98  0.00  0.00  0.02  0.00  0.00
  WS02006245WS02006243    1.00   0.01  0.00  0.00  0.95  0.00  0.00  0.04  0.02  0.00
  WS02006243WS02006242    1.00   0.01  0.00  0.00  0.99  0.00  0.00  0.00  0.23  0.00
  WS02006242WS02006240    1.00   0.01  0.00  0.00  0.99  0.00  0.00  0.00  0.00  0.00
  WS02006240WS02006239    1.00   0.00  0.00  0.00  0.96  0.00  0.00  0.04  0.01  0.00
  WS02006239WS02006238    1.00   0.00  0.00  0.00  1.00  0.00  0.00  0.00  0.01  0.00
  WS02006238WS02006235    1.00   0.00  0.00  0.00  1.00  0.00  0.00  0.00  0.00  0.00
  WS02006235WS02006234    1.00   0.00  0.00  0.00  0.96  0.00  0.03  0.00  0.00  0.00
  WS02006234WS02006232    1.00   0.00  0.00  0.00  1.00  0.00  0.00  0.00  0.09  0.00
  WS02006232WS02006231    1.00   0.00  0.00  0.00  0.99  0.00  0.00  0.00  0.00  0.00
  WS02006231WS02006230    1.00   0.01  0.00  0.00  0.58  0.00  0.41  0.00  0.00  0.00
  WS02006230WS02006229    1.00   0.00  0.00  0.00  0.99  0.00  0.00  0.01  0.01  0.00
  WS02006228WS02006109    1.00   0.00  0.00  0.00  1.00  0.00  0.00  0.00  0.00  0.00
  WS02006116WS02004401    1.00   0.03  0.00  0.00  0.97  0.00  0.00  0.00  0.00  0.00
  WS02006115WS02006116    1.00   0.03  0.00  0.00  0.97  0.00  0.00  0.00  0.00  0.00
  WS02006113WS02006111    1.00   0.01  0.00  0.00  0.00  0.99  0.00  0.00  0.13  0.00
  WS02006112WS02006115    1.00   0.02  0.01  0.00  0.97  0.00  0.00  0.00  0.00  0.00
  WS02006111WS02006112    1.00   0.02  0.00  0.00  0.98  0.00  0.00  0.00  0.95  0.00
  WS02006110WS02006113    1.00   0.00  0.01  0.00  0.99  0.00  0.00  0.00  0.00  0.00
  WS02006109WS02006110    1.00   0.00  0.00  0.00  1.00  0.00  0.00  0.00  0.00  0.00
  WS02004411WS02004412    1.00   0.04  0.00  0.00  0.96  0.00  0.00  0.00  0.00  0.00
  WS02004401WS02004402    1.00   0.03  0.00  0.00  0.97  0.00  0.00  0.00  0.00  0.00
  WS02004413WS02003067    1.00   0.04  0.01  0.00  0.00  0.00  0.95  0.00  0.00  0.00
  WS02004412WS02004413    1.00   0.04  0.00  0.00  0.96  0.00  0.00  0.00  0.02  0.00
  WS02004410WS02004411    1.00   0.03  0.00  0.00  0.97  0.00  0.00  0.00  0.02  0.00
  WS02004409WS02004410    1.00   0.03  0.00  0.00  0.97  0.00  0.00  0.00  0.04  0.00
  WS02004407WS02004409    1.00   0.03  0.00  0.00  0.96  0.00  0.00  0.00  0.90  0.00
  WS02004406WS02004407    1.00   0.00  0.03  0.00  0.97  0.00  0.00  0.00  0.00  0.00
  WS02004405WS02004406    1.00   0.00  0.00  0.00  1.00  0.00  0.00  0.00  0.03  0.00
  WS02004404WS02004405    1.00   0.00  0.00  0.00  1.00  0.00  0.00  0.00  0.00  0.00
  WS02004403WS02004404    1.00   0.00  0.03  0.00  0.97  0.00  0.00  0.00  0.00  0.00
  WS02004402WS02004403    1.00   0.03  0.00  0.00  0.97  0.00  0.00  0.00  0.00  0.00
  WS02004139WS02001211    1.00   0.00  0.00  0.00  1.00  0.00  0.00  0.00  0.00  0.00
  WS02004138WS02004139    1.00   0.00  0.00  0.00  1.00  0.00  0.00  0.00  1.00  0.00
  WS02003067WS02003066    1.00   0.05  0.00  0.00  0.95  0.00  0.00  0.00  0.00  0.00
  WS02001213WS02003059    1.00   0.00  0.00  0.00  1.00  0.00  0.00  0.00  0.00  0.00
  WS02001212WS02001213    1.00   0.00  0.00  0.00  0.80  0.00  0.20  0.00  0.00  0.00
  WS02001211WS02001212    1.00   0.00  0.00  0.00  1.00  0.00  0.00  0.00  0.00  0.00
  WS02003072WS02003073    1.00   0.00  0.00  0.00  0.00  0.00  0.00  1.00  0.00  0.00
  WS02003069WS02003072    1.00   0.00  0.00  0.00  1.00  0.00  0.00  0.00  0.26  0.00
  WS02003060WS02003069    1.00   0.00  0.00  0.00  1.00  0.00  0.00  0.00  0.14  0.00
  WS02003059WS02003060    1.00   0.00  0.00  0.00  1.00  0.00  0.00  0.00  0.01  0.00
  HS02004901HS02004770    1.00   0.04  0.00  0.00  0.96  0.00  0.00  0.00  0.02  0.00
  HS02004876HS02004881    1.00   0.00  0.00  0.00  0.97  0.03  0.00  0.00  0.00  0.00
  HS02004870HS02004876    1.00   0.00  0.00  0.00  1.00  0.00  0.00  0.00  0.95  0.00
  HS02004842HS02004848    1.00   0.00  0.04  0.00  0.96  0.00  0.00  0.00  0.67  0.00
  HS02004837HS02004842    1.00   0.00  0.00  0.00  1.00  0.00  0.00  0.00  0.11  0.00
  HS02004830HS02004837    1.00   0.00  0.00  0.00  1.00  0.00  0.00  0.00  0.99  0.00
  HS02004824HS02004830    1.00   0.00  0.00  0.00  1.00  0.00  0.00  0.00  0.00  0.00
  HS02004817HS02004824    1.00   0.00  0.00  0.00  1.00  0.00  0.00  0.00  1.00  0.00
  HS02004770HS02004777    1.00   0.00  0.04  0.00  0.96  0.00  0.00  0.00  0.07  0.00
  HS02004799HS02004480    1.00   0.00  0.01  0.00  0.95  0.00  0.04  0.00  0.00  0.00
  HS02004792HS02004799    1.00   0.00  0.00  0.00  1.00  0.00  0.00  0.00  0.98  0.00
  HS02004788HS02004792    1.00   0.00  0.00  0.00  1.00  0.00  0.00  0.00  0.98  0.00
  HS02004785HS02004788    1.00   0.00  0.00  0.00  1.00  0.00  0.00  0.00  0.00  0.00
  HS02004777HS02004785    1.00   0.00  0.00  0.00  1.00  0.00  0.00  0.00  0.20  0.00
  HS02004480HS02004478    1.00   0.05  0.00  0.00  0.69  0.00  0.00  0.26  0.00  0.00
  HS02004479HS02004480    1.00   0.01  0.00  0.00  0.99  0.00  0.00  0.00  0.16  0.00
  HS02004862HS02004870    1.00   0.00  0.00  0.00  1.00  0.00  0.00  0.00  0.05  0.00
  HS02004848HS02004852    1.00   0.04  0.00  0.00  0.96  0.00  0.00  0.00  0.71  0.00
  HS02004856HS02004862    1.00   0.00  0.06  0.00  0.94  0.00  0.00  0.00  0.75  0.00
  HS02004852HS02004856    1.00   0.04  0.01  0.00  0.95  0.00  0.00  0.00  0.83  0.00
  HS02004802HS02004478    1.00   0.04  0.00  0.00  0.95  0.00  0.00  0.00  0.01  0.00
  HS02004478WS02006287    1.00   0.05  0.00  0.00  0.81  0.14  0.00  0.00  0.73  0.00
  HS02004817HS02004807    1.00   0.00  0.04  0.00  0.96  0.00  0.00  0.00  0.00  0.00
  HS02004807HS02004802    1.00   0.04  0.00  0.00  0.95  0.00  0.00  0.00  0.01  0.00
  YS02001759YS02001757    1.00   0.00  0.00  0.00  1.00  0.00  0.00  0.00  0.17  0.00
  YS02001762YS02001759    1.00   0.00  0.00  0.00  1.00  0.00  0.00  0.00  0.04  0.00
  YS02001765YS02001762    1.00   0.00  0.00  0.00  1.00  0.00  0.00  0.00  0.22  0.00
  YS02001770YS02001767    1.00   0.00  0.00  0.00  1.00  0.00  0.00  0.00  0.00  0.00
  YS02001774YS02001770    1.00   0.00  0.05  0.00  0.95  0.00  0.00  0.00  0.06  0.00
  YS02001779YS02001774    1.00   0.00  0.00  0.00  1.00  0.00  0.00  0.00  0.26  0.00
  YS02001649YS02001757    1.00   0.00  0.00  0.00  1.00  0.00  0.00  0.00  0.19  0.00
  YS02001767YS02001765    1.00   0.00  0.00  0.00  1.00  0.00  0.00  0.00  0.01  0.00
  YS02006561YS02001783    1.00   0.06  0.00  0.00  0.09  0.85  0.00  0.00  0.60  0.00
  YS02001783YS02001784    1.00   0.00  0.07  0.00  0.93  0.00  0.00  0.00  0.00  0.00
  YS02001784YS02001785    1.00   0.00  0.00  0.00  1.00  0.00  0.00  0.00  0.25  0.00
  YS02001788YS02001790    1.00   0.00  0.00  0.00  0.20  0.80  0.00  0.00  0.68  0.00
  YS02001790YS02001791    1.00   0.00  0.00  0.00  0.17  0.83  0.00  0.00  0.55  0.00
  YS02001791YS02001793    1.00   0.00  0.00  0.00  0.20  0.80  0.00  0.00  0.03  0.00
  YS02001910YS02001907    1.00   0.00  0.00  0.00  0.99  0.00  0.00  0.00  0.13  0.00
  YS02001786YS02001788    1.00   0.00  0.00  0.00  0.17  0.83  0.00  0.00  0.00  0.00
  YS02001915YS02001910    1.00   0.00  0.00  0.00  1.00  0.00  0.00  0.00  0.23  0.00
  YS02001918YS02001915    1.00   0.00  0.00  0.00  1.00  0.00  0.00  0.00  0.66  0.00
  YS02001923YS02001920    1.00   0.00  0.00  0.00  1.00  0.00  0.00  0.00  1.00  0.00
  YS02001926YS02001923    1.00   0.00  0.03  0.00  0.00  0.00  0.97  0.00  0.00  0.00
  YS02001929YS02001926    1.00   0.00  0.04  0.00  0.96  0.00  0.00  0.00  0.87  0.00
  YS02001920YS02001918    1.00   0.00  0.00  0.00  1.00  0.00  0.00  0.00  0.00  0.00
  YS02001629YS02163301    1.00   0.06  0.00  0.00  0.94  0.00  0.00  0.00  0.00  0.00
  YS02001619YS02001622    1.00   0.04  0.00  0.00  0.96  0.00  0.00  0.00  0.00  0.00
  YS02001622YS02001625    1.00   0.04  0.00  0.00  0.96  0.00  0.00  0.00  0.12  0.00
  YS02001625YS02001629    1.00   0.04  0.02  0.00  0.92  0.00  0.01  0.00  0.00  0.00
  YS02163301YS02001633    1.00   0.00  0.06  0.00  0.94  0.00  0.00  0.00  0.00  0.00
  YS02163601YS02164001    1.00   0.00  0.03  0.00  0.97  0.00  0.00  0.00  0.00  0.00
  YS02164001YS02001641    1.00   0.00  0.03  0.00  0.97  0.00  0.00  0.00  0.07  0.00
  YS02001641YS02001644    1.00   0.00  0.00  0.00  1.00  0.00  0.00  0.00  0.00  0.00
  YS02001647YS02001649    1.00   0.00  0.06  0.00  0.94  0.00  0.00  0.00  0.01  0.00
  YS02006553YS02006556    1.00   0.00  0.00  0.00  1.00  0.00  0.00  0.00  0.03  0.00
  YS02006556YS02006558    1.00   0.00  0.00  0.00  1.00  0.00  0.00  0.00  0.00  0.00
  YSB6556YSB1171          1.00   0.01  0.03  0.00  0.96  0.00  0.00  0.00  0.00  0.00
  YS02001907YS02006553    1.00   0.00  0.00  0.00  1.00  0.00  0.00  0.00  0.00  0.00
  YS02006558YS02006561    1.00   0.06  0.00  0.00  0.00  0.93  0.00  0.00  0.58  0.00
  YS02001633YS02163601    1.00   0.00  0.00  0.00  1.00  0.00  0.00  0.00  0.19  0.00
  YS02001644YS02001647    1.00   0.00  0.06  0.00  0.94  0.00  0.00  0.00  0.00  0.00
  YS02001745YS02001748    1.00   0.00  0.00  0.00  0.90  0.00  0.00  0.10  0.06  0.00
  YS02001748YS02001751    1.00   0.00  0.00  0.00  0.98  0.02  0.00  0.00  0.23  0.00
  YS02001751YS02001754    1.00   0.00  0.00  0.00  0.93  0.00  0.00  0.07  0.01  0.00
  YS02001754YS02001757    1.00   0.00  0.00  0.00  1.00  0.00  0.00  0.00  0.26  0.00
  YS02001882YS02001884    1.00   0.05  0.00  0.00  0.94  0.00  0.00  0.00  0.00  0.00
  YS02001884YS02001887    1.00   0.03  0.01  0.00  0.96  0.00  0.00  0.00  0.00  0.00
  YS02001890YS02001895    1.00   0.00  0.06  0.00  0.94  0.00  0.00  0.00  0.00  0.00
  YS02001895YS02001898    1.00   0.06  0.00  0.00  0.93  0.00  0.01  0.00  0.00  0.00
  YS02001898YS02001901    1.00   0.06  0.00  0.00  0.94  0.00  0.00  0.00  0.02  0.00
  YS02001901YS02001904    1.00   0.06  0.00  0.00  0.94  0.00  0.00  0.00  0.00  0.00
  YS02001904YS02001907    1.00   0.00  0.06  0.00  0.94  0.00  0.00  0.00  0.00  0.00
  YS02001887YS02001890    1.00   0.00  0.00  0.00  0.99  0.00  0.01  0.00  0.00  0.00
  YS02001652YS02001649    1.00   0.00  0.00  0.00  1.00  0.00  0.00  0.00  0.25  0.00
  YS02001655YS02001652    1.00   0.00  0.00  0.00  0.93  0.00  0.00  0.07  0.01  0.00
  YS02001658YS02001655    1.00   0.00  0.05  0.00  0.93  0.02  0.00  0.00  0.07  0.00
  YS02001661YS02001658    1.00   0.05  0.00  0.00  0.90  0.05  0.00  0.00  0.06  0.00
  YS02001664YS02001661    1.00   0.04  0.00  0.00  0.82  0.13  0.00  0.00  0.37  0.00
  YSB1154YSB6556          1.00   0.04  0.00  0.00  0.96  0.00  0.00  0.00  0.02  0.00
  YSB1174YSB1171          1.00   0.03  0.01  0.00  0.96  0.00  0.00  0.00  0.00  0.00
  YSB1171HS02004479       1.00   0.01  0.00  0.00  0.97  0.00  0.00  0.02  0.13  0.00
  HS02004881HS02006253    1.00   0.02  0.00  0.00  0.74  0.01  0.00  0.23  0.54  0.00
  YS02001793JiankangQianchi    1.00   0.00  0.00  0.00  0.40  0.60  0.00  0.00  0.21  0.00
  YS02001757CaochengTiaoxuchi    1.00   0.00  0.07  0.00  0.91  0.01  0.00  0.00  0.00  0.00
  WSF200WS02003060        1.00   0.00  0.04  0.00  0.76  0.20  0.00  0.00  0.39  0.00
  1                       1.00   0.00  0.00  0.00  0.00  1.00  0.00  0.00  0.38  0.00
  2                       1.00   0.57  0.00  0.00  0.00  0.43  0.00  0.00  0.08  0.00
  3                       1.00   0.16  0.00  0.00  0.00  0.84  0.00  0.00  0.27  0.00
  4                       1.00   1.00  0.00  0.00  0.00  0.00  0.00  0.00  0.00  0.00
  
  
  *************************
  Conduit Surcharge Summary
  *************************
  
  ----------------------------------------------------------------------------
                                                           Hours        Hours 
                         --------- Hours Full --------   Above Full   Capacity
  Conduit                Both Ends  Upstream  Dnstream   Normal Flow   Limited
  ----------------------------------------------------------------------------
  WS02006229WS02006228        2.11      2.29      2.11      3.62         2.11
  WS02006256WS02006235        5.77      5.77      6.83      2.76         0.01
  WS02006252WS02006251        1.14      1.14      2.08      1.83         0.01
  WS02006251WS02006249        0.01      0.01      0.01      1.25         0.01
  WS02006249WS02006248        0.01      0.01      0.01      3.82         0.01
  WS02006247WS02006245        0.01      0.01      0.01      4.24         0.01
  WS02006245WS02006243        0.01      0.01      0.04      0.01         0.01
  WS02006243WS02006242        0.09      0.09      1.57      0.01         0.01
  WS02006242WS02006240        0.69      0.69      1.86      2.14         0.01
  WS02006240WS02006239        0.79      0.79      0.86      0.01         0.01
  WS02006239WS02006238        1.77      1.77      1.92      0.03         0.04
  WS02006238WS02006235        1.77      1.77      2.15      0.01         0.01
  WS02006235WS02006234        0.69      0.69      1.60      5.76         0.01
  WS02006234WS02006232        0.89      0.89      2.22      0.01         0.01
  WS02006232WS02006231        0.34      0.34      2.22      0.01         0.01
  WS02006231WS02006230        0.12      0.12      0.41      5.81         0.01
  WS02006230WS02006229        2.75      3.26      2.75      5.91         2.75
  WS02006228WS02006109        2.21      2.55      2.21      4.67         2.21
  WS02006112WS02006115        0.01      0.01      0.78      0.01         0.01
  WS02006111WS02006112        0.01      0.01      3.94      0.01         0.01
  WS02006110WS02006113        0.01      0.01      2.42      0.01         0.01
  WS02006109WS02006110        0.48      0.48      2.55      0.48         0.01
  WS02004405WS02004406        0.01      0.01      0.01      0.54         0.01
  WS02004404WS02004405        0.01      0.12      0.01      5.69         0.01
  WS02004403WS02004404        0.01      0.01      0.12      0.01         0.01
  WS02003072WS02003073        0.01      0.01      0.01      4.71         0.01
  HS02004480HS02004478        0.01      0.01      0.01      0.15         0.01
  YS02001759YS02001757        5.49      5.49      5.53      0.01         0.01
  YS02001762YS02001759        5.48      5.48      5.49      0.01         0.02
  YS02001765YS02001762        5.46      5.46      5.48      0.01         0.01
  YS02001770YS02001767        5.38      5.40      5.40      0.01         0.73
  YS02001774YS02001770        5.32      5.32      5.48      0.01         0.01
  YS02001779YS02001774        5.01      5.01      5.48      0.01         0.01
  YS02001649YS02001757        5.48      5.48      5.53      0.01         0.01
  YS02001767YS02001765        5.40      5.40      5.46      0.01         0.02
  YS02001784YS02001785        0.01      0.01      0.01      0.94         0.01
  YS02001788YS02001790        0.01      0.01      0.49      0.01         0.01
  YS02001790YS02001791        0.49      0.49      0.59      0.01         0.01
  YS02001791YS02001793        0.59      0.59      0.98      0.01         0.01
  YS02001786YS02001788        0.01      0.01      0.01      0.46         0.01
  YS02001629YS02163301        5.34      5.34      5.38      0.01         0.01
  YS02001619YS02001622        4.08      4.08      4.17      0.01         0.01
  YS02001622YS02001625        4.17      4.17      5.25      0.01         0.01
  YS02001625YS02001629        4.12      4.12      5.25      0.01         0.01
  YS02163301YS02001633        5.38      5.38      5.46      0.01         0.01
  YS02163601YS02164001        5.45      5.45      5.47      0.01         0.01
  YS02164001YS02001641        5.45      5.45      5.47      0.01         0.01
  YS02001641YS02001644        5.47      5.47      5.47      0.01         1.13
  YS02001647YS02001649        5.24      5.24      5.48      0.01         0.01
  YS02006553YS02006556        0.01      0.01      0.04      0.01         0.01
  YS02006556YS02006558        0.01      0.01      0.23      0.01         0.01
  YS02001907YS02006553        0.98      0.98      1.19      0.01         0.01
  YS02006558YS02006561        0.01      0.01      0.01      0.83         0.01
  YS02001633YS02163601        5.44      5.44      5.47      0.01         0.01
  YS02001644YS02001647        5.24      5.24      5.47      0.01         0.01
  YS02001745YS02001748        0.01      0.01      3.56      0.01         0.01
  YS02001748YS02001751        3.71      3.71      4.20      0.01         0.01
  YS02001751YS02001754        4.20      4.20      5.13      0.01         0.01
  YS02001754YS02001757        5.24      5.24      5.53      0.01         0.01
  YS02001904YS02001907        0.01      0.01      0.03      0.01         0.01
  YS02001652YS02001649        5.25      5.25      5.48      0.01         0.01
  YS02001655YS02001652        4.31      4.31      5.23      0.01         0.01
  YS02001658YS02001655        3.56      3.56      4.31      0.01         0.01
  YS02001661YS02001658        0.01      0.01      3.56      0.01         0.01
  YS02001793JiankangQianchi        0.90      0.90      2.21      0.01         0.01
  YS02001757CaochengTiaoxuchi        3.80      3.80      5.53      0.01         0.01
  
  
  ***************
  Pumping Summary
  ***************
  
  ---------------------------------------------------------------------------------------------------------
                                                  Min       Avg       Max     Total     Power    % Time Off
                        Percent   Number of      Flow      Flow      Flow    Volume     Usage    Pump Curve
  Pump                 Utilized   Start-Ups       LPS       LPS       LPS  10^6 ltr     Kw-hr    Low   High
  ---------------------------------------------------------------------------------------------------------
  CC-Pump-1               50.90           6      0.00    143.23    200.00     2.015      3.97    0.0   10.3
  CC-Pump-2               57.27           4      0.00    144.76    200.00     2.306      4.92    0.0   12.9
  JK-Pump-1               70.21           8      0.00    144.69    300.00     2.267     32.71    0.0    0.0
  JK-Pump-2               87.22           4      0.00    162.97    300.00     3.059     44.62    0.0    0.0
  XR-Pump-1               91.46           8      0.00     66.74     95.00     1.739     17.02    0.0    0.0
  XR-Pump-2               78.69           7      0.00     68.07     95.00     1.510     14.95    0.0    0.0
  XR-Pump-3               89.35           7      0.00     70.58     95.00     1.824     17.17    0.0    0.0
  XR-Pump-4               89.34           7      0.00     72.90     95.00     1.852     18.72    0.0    0.0
  

  Analysis begun on:  Fri Dec 24 16:35:36 2021
  Analysis ended on:  Fri Dec 24 16:35:40 2021
  Total elapsed time: 00:00:04