
  EPA STORM WATER MANAGEMENT MODEL - VERSION 5.1 (Build 5.3.0.dev0)
  --------------------------------------------------------------

  WARNING 04: minimum elevation drop used for Conduit WS02004404WS02004405
  WARNING 03: negative offset ignored for Link YS02001904YS02001907
  
  *********************************************************
  NOTE: The summary statistics displayed in this report are
  based on results found at every computational time step,  
  not just on results from each reporting time step.
  *********************************************************
  
  ****************
  Analysis Options
  ****************
  Flow Units ............... LPS
  Process Models:
    Rainfall/Runoff ........ YES
    RDII ................... NO
    Snowmelt ............... NO
    Groundwater ............ NO
    Flow Routing ........... YES
    Ponding Allowed ........ NO
    Water Quality .......... NO
  Infiltration Method ...... HORTON
  Flow Routing Method ...... DYNWAVE
  Surcharge Method ......... EXTRAN
  Starting Date ............ 08/28/2015 08:00:00
  Ending Date .............. 08/28/2015 15:50:00
  Antecedent Dry Days ...... 8.0
  Report Time Step ......... 00:01:00
  Wet Time Step ............ 00:01:00
  Dry Time Step ............ 00:01:00
  Routing Time Step ........ 5.00 sec
  Variable Time Step ....... YES
  Maximum Trials ........... 8
  Number of Threads ........ 4
  Head Tolerance ........... 0.001500 m
  
  
  **************************        Volume         Depth
  Runoff Quantity Continuity     hectare-m            mm
  **************************     ---------       -------
  Total Precipitation ......         2.740         6.000
  Evaporation Loss .........         0.000         0.000
  Infiltration Loss ........         0.689         1.508
  Surface Runoff ...........         1.164         2.549
  Final Storage ............         0.888         1.944
  Continuity Error (%) .....        -0.018
  
  
  **************************        Volume        Volume
  Flow Routing Continuity        hectare-m      10^6 ltr
  **************************     ---------     ---------
  Dry Weather Inflow .......         0.616         6.165
  Wet Weather Inflow .......         1.164        11.637
  Groundwater Inflow .......         0.000         0.000
  RDII Inflow ..............         0.000         0.000
  External Inflow ..........         0.102         1.024
  External Outflow .........         1.686        16.863
  Flooding Loss ............         0.040         0.402
  Evaporation Loss .........         0.000         0.000
  Exfiltration Loss ........         0.000         0.000
  Initial Stored Volume ....         0.076         0.761
  Final Stored Volume ......         0.367         3.668
  Continuity Error (%) .....        -6.876
  
  
  *************************
  Highest Continuity Errors
  *************************
  Node JK-storage (-37.87%)
  Node HS02004842 (28.09%)
  Node YS02001884 (22.60%)
  Node YS02001774 (18.68%)
  Node YSB1171 (6.85%)
  
  
  ***************************
  Time-Step Critical Elements
  ***************************
  Link WS02006252WS02006251 (55.56%)
  Link 3 (32.39%)
  Link WS02006238WS02006235 (5.70%)
  Link WS02006280WS02006229 (2.27%)
  
  
  ********************************
  Highest Flow Instability Indexes
  ********************************
  Link WS02006113WS02006111 (42)
  Link WS02006111WS02006112 (21)
  Link YS02006558YS02006561 (16)
  Link YS02001655YS02001652 (3)
  Link YS02001652YS02001649 (3)
  
  
  *************************
  Routing Time Step Summary
  *************************
  Minimum Time Step           :     0.50 sec
  Average Time Step           :     0.88 sec
  Maximum Time Step           :     5.00 sec
  Percent in Steady State     :    -0.00
  Average Iterations per Step :     2.09
  Percent Not Converging      :     0.85
  
  
  ***************************
  Subcatchment Runoff Summary
  ***************************
  
  ------------------------------------------------------------------------------------------------------------------------------
                            Total      Total      Total      Total     Imperv       Perv      Total       Total     Peak  Runoff
                           Precip      Runon       Evap      Infil     Runoff     Runoff     Runoff      Runoff   Runoff   Coeff
  Subcatchment                 mm         mm         mm         mm         mm         mm         mm    10^6 ltr      LPS
  ------------------------------------------------------------------------------------------------------------------------------
  sub0                       6.00       0.00       0.00       0.42       4.32       0.00       4.32        0.00     1.44   0.719
  sub1                       6.00       0.00       0.00       0.66       4.08       0.00       4.08        0.03     7.61   0.681
  sub2                       6.00       0.00       0.00       2.22       2.87       0.00       2.87        0.03     6.74   0.479
  sub3                       6.00       0.00       0.00       2.22       2.84       0.00       2.84        0.06    13.89   0.473
  sub4                       6.00       0.00       0.00       0.66       3.95       0.00       3.95        0.08    15.61   0.658
  sub5                       6.00       0.00       0.00       0.42       4.27       0.00       4.27        0.05    13.53   0.711
  sub7                       6.00       0.00       0.00       0.54       4.21       0.00       4.21        0.01     4.76   0.701
  sub8                       6.00       0.00       0.00       0.54       4.20       0.00       4.20        0.03     8.41   0.699
  sub9                       6.00       0.00       0.00       0.54       4.19       0.00       4.19        0.02     6.23   0.699
  sub10                      6.00       0.00       0.00       0.48       4.23       0.00       4.23        0.05    13.51   0.705
  sub11                      6.00       0.00       0.00       0.48       4.25       0.00       4.25        0.05    15.82   0.708
  sub12                      6.00       0.00       0.00       0.78       4.03       0.00       4.03        0.04    13.37   0.672
  sub14                      6.00       0.00       0.00       0.54       4.19       0.00       4.19        0.04    12.19   0.699
  sub15                      6.00       0.00       0.00       1.80       3.22       0.00       3.22        0.06    16.54   0.537
  sub16                      6.00       0.00       0.00       1.98       3.10       0.00       3.10        0.03    11.75   0.517
  sub17                      6.00       0.00       0.00       1.92       3.15       0.00       3.15        0.03     9.50   0.524
  sub22                      6.00       0.00       0.00       2.58       2.63       0.00       2.63        0.17    54.10   0.439
  sub23                      6.00       0.00       0.00       2.22       2.91       0.00       2.91        0.14    46.08   0.485
  sub60                      6.00       0.00       0.00       0.72       2.84       0.00       2.84        0.86    79.76   0.473
  sub61                      6.00       0.00       0.00       1.02       3.04       0.00       3.04        0.94   100.03   0.506
  sub62                      6.00       0.00       0.00       0.48       3.26       0.00       3.26        1.00   102.24   0.543
  sub63                      6.00       0.00       0.00       1.74       2.70       0.00       2.70        0.82    93.34   0.451
  sub64                      6.00       0.00       0.00       0.90       2.71       0.00       2.71        0.83    75.76   0.452
  sub65                      6.00       0.00       0.00       0.78       2.75       0.00       2.75        0.85    76.87   0.458
  sub66                      6.00       0.00       0.00       1.74       2.37       0.00       2.37        0.73    69.43   0.395
  sub67                      6.00       0.00       0.00       0.48       3.58       0.00       3.58        1.10   131.19   0.596
  sub68                      6.00       0.00       0.00       0.84       3.23       0.00       3.23        0.99   110.58   0.538
  sub69                      6.00       0.00       0.00       0.90       3.48       0.00       3.48        0.81   109.76   0.581
  sub70                      6.00       3.56       0.00       3.25       4.28       0.00       4.28        0.98    88.75   0.448
  sub71                      6.00       0.00       0.00       0.48       3.11       0.00       3.11        0.74    71.37   0.519
  sub72                      6.00       0.00       0.00       0.42       2.20       0.00       2.20        0.45    33.68   0.367
  sub73                      6.00       4.17       0.00       3.46       4.36       0.00       4.36        1.03    76.27   0.429
  sub74                      6.00       0.00       0.00       4.50       1.05       0.00       1.05        0.42    61.21   0.175
  
  
  ******************
  Node Depth Summary
  ******************
  
  ---------------------------------------------------------------------------------
                                 Average  Maximum  Maximum  Time of Max    Reported
                                   Depth    Depth      HGL   Occurrence   Max Depth
  Node                 Type       Meters   Meters   Meters  days hr:min      Meters
  ---------------------------------------------------------------------------------
  WS02001211           JUNCTION     0.66     0.76     5.60     0  07:01        0.76
  WS02001212           JUNCTION     0.38     0.47     5.54     0  07:01        0.47
  WS02001213           JUNCTION     0.62     0.71     5.47     0  07:01        0.71
  WS02003069           JUNCTION     0.43     0.52     5.11     0  02:55        0.52
  WS02003072           JUNCTION     0.50     0.59     4.96     0  02:55        0.59
  WS02003073           JUNCTION     0.30     0.36     4.42     0  02:56        0.36
  WS02003060           JUNCTION     0.39     0.46     5.39     0  02:54        0.46
  WS02003066           JUNCTION     0.23     0.29     5.84     0  02:42        0.29
  WS02003059           JUNCTION     0.68     0.76     5.45     0  07:02        0.76
  WS02003067           JUNCTION     0.57     0.68     6.00     0  02:42        0.68
  WS02004401           JUNCTION     0.66     0.82     6.82     0  02:38        0.82
  WS02004402           JUNCTION     0.69     0.85     6.81     0  02:38        0.85
  WS02004403           JUNCTION     0.71     0.86     6.79     0  02:38        0.86
  WS02004404           JUNCTION     0.78     0.94     6.79     0  02:38        0.94
  WS02004406           JUNCTION     0.79     0.93     6.76     0  02:39        0.93
  WS02004409           JUNCTION     0.48     0.64     6.41     0  02:42        0.64
  WS02004410           JUNCTION     0.50     0.65     6.37     0  02:42        0.65
  WS02004411           JUNCTION     0.52     0.66     6.34     0  02:42        0.66
  WS02004412           JUNCTION     0.53     0.67     6.31     0  02:43        0.67
  WS02004413           JUNCTION     0.69     0.83     6.30     0  02:43        0.83
  WS02004405           JUNCTION     0.78     0.93     6.78     0  02:39        0.93
  WS02006109           JUNCTION     0.74     0.92     7.54     0  02:35        0.92
  WS02006110           JUNCTION     0.74     0.89     7.47     0  02:35        0.89
  WS02006111           JUNCTION     0.21     0.27     6.98     0  02:35        0.27
  WS02006112           JUNCTION     0.83     1.01     6.89     0  02:37        1.01
  WS02006113           JUNCTION     0.33     0.43     7.33     0  02:35        0.43
  WS02006115           JUNCTION     0.55     0.72     6.85     0  02:38        0.72
  WS02006116           JUNCTION     0.63     0.80     6.84     0  02:38        0.80
  WS02006230           JUNCTION     0.70     0.94     7.69     0  02:36        0.94
  WS02006231           JUNCTION     0.46     0.62     7.74     0  02:38        0.62
  WS02006232           JUNCTION     0.60     0.75     7.79     0  03:47        0.75
  WS02006234           JUNCTION     0.52     0.70     7.86     0  03:47        0.70
  WS02006235           JUNCTION     0.55     0.74     7.91     0  03:47        0.74
  WS02006238           JUNCTION     0.58     0.77     7.92     0  03:47        0.77
  WS02006240           JUNCTION     0.47     0.70     8.00     0  03:48        0.70
  WS02006242           JUNCTION     0.53     0.77     8.04     0  03:48        0.77
  WS02006243           JUNCTION     0.41     0.67     8.09     0  03:48        0.67
  WS02006245           JUNCTION     0.39     0.64     8.12     0  03:48        0.64
  WS02006247           JUNCTION     0.41     0.65     8.15     0  03:49        0.65
  WS02006248           JUNCTION     0.36     0.59     8.17     0  03:48        0.59
  WS02006249           JUNCTION     0.39     0.60     8.20     0  03:48        0.60
  WS02006239           JUNCTION     0.53     0.75     7.96     0  03:47        0.75
  WS02006251           JUNCTION     0.38     0.62     8.29     0  03:48        0.62
  WS02006252           JUNCTION     0.34     0.59     8.83     0  05:00        0.58
  WS02006253           JUNCTION     0.41     0.65     8.29     0  03:48        0.65
  WS02006256           JUNCTION     1.00     1.20     8.14     0  02:40        1.20
  WS02004138           JUNCTION     0.15     0.19     7.44     0  07:00        0.19
  WS02004407           JUNCTION     0.22     0.28     6.60     0  02:39        0.28
  WS02006228           JUNCTION     0.73     0.95     7.60     0  02:35        0.95
  WS02006229           JUNCTION     0.71     0.94     7.63     0  02:34        0.94
  WS02006280           JUNCTION     0.05     0.15     8.42     0  02:18        0.15
  WS02006284           JUNCTION     0.35     0.48     8.88     0  02:18        0.48
  WS02006287           JUNCTION     0.08     0.21     9.17     0  02:17        0.21
  WSF200               JUNCTION     0.21     0.29     5.53     0  02:48        0.29
  HS02004901           JUNCTION     0.11     0.23    10.05     0  02:15        0.23
  HS02004881           JUNCTION     0.01     0.02     9.05     0  02:17        0.02
  HS02004876           JUNCTION     0.04     0.10     9.13     0  02:16        0.10
  HS02004870           JUNCTION     0.01     0.04     9.33     0  02:18        0.04
  HS02004862           JUNCTION     0.01     0.05     9.43     0  02:19        0.05
  HS02004856           JUNCTION     0.07     0.10     9.53     0  02:18        0.10
  HS02004852           JUNCTION     0.01     0.03     9.54     0  02:19        0.03
  HS02004848           JUNCTION     0.01     0.03     9.63     0  02:18        0.03
  HS02004842           JUNCTION     0.33     0.36     9.63     0  02:17        0.36
  HS02004837           JUNCTION     0.03     0.05     9.63     0  02:17        0.05
  HS02004830           JUNCTION     0.04     0.06     9.53     0  02:18        0.06
  HS02004824           JUNCTION     0.02     0.04     9.44     0  02:21        0.04
  HS02004817           JUNCTION     0.43     0.53     9.37     0  02:18        0.53
  HS02004807           JUNCTION     0.11     0.20     9.37     0  02:18        0.20
  HS02004802           JUNCTION     0.15     0.24     9.37     0  02:18        0.24
  HS02004799           JUNCTION     0.10     0.26     9.47     0  02:16        0.26
  HS02004792           JUNCTION     0.02     0.10     9.62     0  02:15        0.10
  HS02004788           JUNCTION     0.02     0.07     9.97     0  02:16        0.07
  HS02004785           JUNCTION     0.03     0.14    10.04     0  02:16        0.14
  HS02004777           JUNCTION     0.13     0.25    10.05     0  02:15        0.25
  HS02004770           JUNCTION     0.10     0.22    10.05     0  02:15        0.22
  HS02004480           JUNCTION     0.06     0.20     9.44     0  02:16        0.20
  HS02004479           JUNCTION     0.10     0.24     9.44     0  02:16        0.24
  HS02004478           JUNCTION     0.05     0.13     9.36     0  02:17        0.13
  YS02001745           JUNCTION     0.09     0.15     7.66     0  04:35        0.14
  YS02001748           JUNCTION     0.43     0.57     7.65     0  04:36        0.57
  YS02001751           JUNCTION     0.61     0.77     7.65     0  04:36        0.76
  YS02001754           JUNCTION     0.86     1.05     7.66     0  04:36        1.04
  YS02001762           JUNCTION     1.06     1.29     7.69     0  04:54        1.25
  YS02001765           JUNCTION     1.01     1.26     7.71     0  04:54        1.21
  YS02001767           JUNCTION     0.98     1.24     7.73     0  04:54        1.18
  YS02001770           JUNCTION     0.97     1.22     7.72     0  04:54        1.19
  YS02001774           JUNCTION     1.04     1.27     7.69     0  04:54        1.25
  YS02001779           JUNCTION     0.79     1.00     7.68     0  04:35        0.99
  YS02001882           JUNCTION     0.29     0.47     7.18     0  02:52        0.47
  YS02001884           JUNCTION     0.39     0.57     7.18     0  02:51        0.57
  YS02001759           JUNCTION     1.09     1.30     7.66     0  04:54        1.28
  YS02001887           JUNCTION     0.47     0.64     7.18     0  02:52        0.64
  YS02001890           JUNCTION     0.50     0.67     7.18     0  02:52        0.67
  YS02001898           JUNCTION     0.26     0.43     7.16     0  02:53        0.43
  YS02001901           JUNCTION     0.38     0.56     7.16     0  02:53        0.56
  YS02001904           JUNCTION     0.36     0.53     7.16     0  02:53        0.53
  YS02001907           JUNCTION     0.69     0.87     7.16     0  02:53        0.87
  YS02001910           JUNCTION     0.48     0.66     7.16     0  02:53        0.66
  YS02001915           JUNCTION     0.28     0.44     7.16     0  02:54        0.44
  YS02001918           JUNCTION     0.08     0.10     7.16     0  03:03        0.10
  YS02001619           JUNCTION     0.57     0.73     7.66     0  04:40        0.73
  YS02001629           JUNCTION     0.92     1.12     7.67     0  04:39        1.12
  YS02001641           JUNCTION     1.03     1.25     7.69     0  04:55        1.23
  YS02001644           JUNCTION     1.03     1.25     7.68     0  04:55        1.24
  YS02001652           JUNCTION     0.87     1.14     7.73     0  04:45        1.08
  YS02001655           JUNCTION     0.64     0.84     7.69     0  04:37        0.82
  YS02001920           JUNCTION     0.18     0.21     7.22     0  03:02        0.21
  YS02001923           JUNCTION     0.07     0.09     7.35     0  03:02        0.09
  YS02001926           JUNCTION     0.14     0.18     7.62     0  03:01        0.18
  YS02001929           JUNCTION     0.07     0.09     7.78     0  03:01        0.09
  YS02001658           JUNCTION     0.37     0.51     7.66     0  04:37        0.51
  YS02001661           JUNCTION     0.17     0.28     7.68     0  04:36        0.28
  YS02001664           JUNCTION     0.07     0.12     8.04     0  02:45        0.12
  YS02001622           JUNCTION     0.59     0.75     7.65     0  04:40        0.75
  YS02001633           JUNCTION     1.01     1.22     7.67     0  04:55        1.21
  YS02001649           JUNCTION     1.07     1.29     7.68     0  04:45        1.27
  YS02001757           JUNCTION     1.19     1.39     7.65     0  04:55        1.38
  YS02001895           JUNCTION     0.26     0.43     7.17     0  02:53        0.43
  YS02001625           JUNCTION     0.87     1.05     7.66     0  04:39        1.04
  YS02163301           JUNCTION     0.95     1.15     7.67     0  04:39        1.15
  YS02163601           JUNCTION     1.07     1.28     7.68     0  04:55        1.27
  YS02164001           JUNCTION     1.01     1.23     7.68     0  04:55        1.21
  YS02001647           JUNCTION     0.86     1.07     7.68     0  04:50        1.06
  YSB1154              JUNCTION     0.24     0.39     9.44     0  02:16        0.39
  YSB6556              JUNCTION     0.13     0.28     9.44     0  02:16        0.27
  YSB1174              JUNCTION     0.19     0.34     9.44     0  02:16        0.34
  YSB1171              JUNCTION     0.39     0.54     9.44     0  02:16        0.54
  YS02006553           JUNCTION     0.70     0.88     7.16     0  02:53        0.88
  YS02006561           JUNCTION     0.14     0.23     6.89     0  02:54        0.23
  YS02006556           JUNCTION     0.67     0.85     7.16     0  02:53        0.85
  YS02006558           JUNCTION     0.71     0.89     7.16     0  02:53        0.89
  YS02001783           JUNCTION     0.25     0.41     6.55     0  02:54        0.41
  YS02001784           JUNCTION     0.28     0.44     6.51     0  02:53        0.44
  YS02001786           JUNCTION     0.24     0.37     6.40     0  02:54        0.37
  YS02001788           JUNCTION     0.17     0.28     6.26     0  02:54        0.28
  YS02001790           JUNCTION     0.21     0.34     5.99     0  02:54        0.34
  YS02001791           JUNCTION     0.14     0.22     5.69     0  02:54        0.22
  YS02001793           JUNCTION     0.09     0.14     4.98     0  02:48        0.14
  WS02004139           JUNCTION     0.60     0.71     5.62     0  07:00        0.71
  WSC                  OUTFALL      0.30     0.36     1.03     0  02:56        0.36
  3                    OUTFALL      0.08     0.20     6.20     0  02:40        0.20
  4                    OUTFALL      0.01     0.10     7.10     0  03:49        0.10
  5                    OUTFALL      0.00     0.00     5.00     0  00:00        0.00
  JK-storage           STORAGE      0.27     3.04     3.84     0  00:40        3.04
  CC-storage           STORAGE      0.44     0.62     7.62     0  04:36        0.62
  XR-storage           STORAGE      6.25     7.72     5.72     0  04:02        7.72
  
  
  *******************
  Node Inflow Summary
  *******************
  
  -------------------------------------------------------------------------------------------------
                                  Maximum  Maximum                  Lateral       Total        Flow
                                  Lateral    Total  Time of Max      Inflow      Inflow     Balance
                                   Inflow   Inflow   Occurrence      Volume      Volume       Error
  Node                 Type           LPS      LPS  days hr:min    10^6 ltr    10^6 ltr     Percent
  -------------------------------------------------------------------------------------------------
  WS02001211           JUNCTION      7.35   380.18     0  03:20       0.207        6.84       0.558
  WS02001212           JUNCTION      0.00   374.65     0  03:20           0        6.81       0.316
  WS02001213           JUNCTION      0.00   372.07     0  03:21           0        6.79       0.305
  WS02003069           JUNCTION      0.32   779.84     0  02:55     0.00902        13.9       0.186
  WS02003072           JUNCTION      0.00   779.78     0  02:55           0        13.8       0.236
  WS02003073           JUNCTION      1.82   781.71     0  02:55      0.0514        13.9       0.265
  WS02003060           JUNCTION     16.53   779.62     0  02:54       0.466        13.9       0.178
  WS02003066           JUNCTION      0.00   494.09     0  02:43           0        6.69       0.049
  WS02003059           JUNCTION      0.00   369.40     0  03:21           0        6.77       0.578
  WS02003067           JUNCTION      0.00   494.09     0  02:43           0         6.7       0.110
  WS02004401           JUNCTION      0.00   497.22     0  02:38           0        6.88       0.227
  WS02004402           JUNCTION      0.00   496.83     0  02:38           0        6.86       0.222
  WS02004403           JUNCTION      0.00   496.50     0  02:38           0        6.84       0.208
  WS02004404           JUNCTION      0.16   496.56     0  02:38     0.00457        6.83       0.164
  WS02004406           JUNCTION      0.00   496.44     0  02:39           0        6.81       0.403
  WS02004409           JUNCTION      0.00   495.98     0  02:39           0        6.78       0.153
  WS02004410           JUNCTION      0.00   495.07     0  02:39           0        6.77       0.185
  WS02004411           JUNCTION      0.00   494.45     0  02:41           0        6.75       0.199
  WS02004412           JUNCTION      0.00   494.29     0  02:42           0        6.74       0.227
  WS02004413           JUNCTION      0.00   494.21     0  02:42           0        6.72       0.355
  WS02004405           JUNCTION      0.04   496.46     0  02:38     0.00107        6.82       0.247
  WS02006109           JUNCTION      1.23   492.21     0  02:35      0.0347        6.93       0.199
  WS02006110           JUNCTION      0.00   492.22     0  02:35           0        6.92       0.190
  WS02006111           JUNCTION      0.00   509.12     0  02:35           0         6.9       0.022
  WS02006112           JUNCTION      9.50   501.55     0  02:35       0.027        6.92       0.325
  WS02006113           JUNCTION      0.00   492.61     0  02:35           0         6.9       0.067
  WS02006115           JUNCTION      0.00   499.71     0  02:37           0         6.9       0.195
  WS02006116           JUNCTION      0.00   498.06     0  02:38           0        6.89       0.169
  WS02006230           JUNCTION     10.28   397.44     0  03:49        0.29           6       0.132
  WS02006231           JUNCTION      0.00   387.29     0  03:44           0        5.71       0.002
  WS02006232           JUNCTION      0.00   387.65     0  03:44           0        5.71       0.133
  WS02006234           JUNCTION      0.00   391.11     0  03:43           0        5.71       0.001
  WS02006235           JUNCTION      0.00   391.88     0  03:42           0        5.75       0.089
  WS02006238           JUNCTION      0.00   335.56     0  05:00           0        3.97       0.037
  WS02006240           JUNCTION      0.00   334.49     0  05:00           0        3.94       0.032
  WS02006242           JUNCTION      0.00   335.43     0  05:01           0        3.93       0.053
  WS02006243           JUNCTION      0.00   339.90     0  04:41           0        3.91      -0.291
  WS02006245           JUNCTION      0.00   342.18     0  04:41           0        3.92       0.112
  WS02006247           JUNCTION      0.00   347.47     0  03:41           0        3.92       0.012
  WS02006248           JUNCTION      0.00   353.69     0  03:40           0        3.91      -0.060
  WS02006249           JUNCTION      0.00   404.02     0  03:48           0        4.08       0.097
  WS02006239           JUNCTION      0.00   335.17     0  05:00           0        3.95      -0.006
  WS02006251           JUNCTION      0.08   404.27     0  03:41     0.00217         4.1       0.000
  WS02006252           JUNCTION      0.00   400.00     0  03:40           0        3.92       0.002
  WS02006253           JUNCTION      1.44    42.33     0  02:17     0.00349       0.177      -0.090
  WS02006256           JUNCTION      0.00   600.00     0  03:10           0        4.69       0.034
  WS02004138           JUNCTION      0.00   379.98     0  07:00           0        6.67       0.055
  WS02004407           JUNCTION      0.00   496.16     0  02:39           0        6.78       0.066
  WS02006228           JUNCTION      0.00   490.97     0  02:35           0         6.9       0.130
  WS02006229           JUNCTION      0.00   490.98     0  02:34           0        6.91       0.121
  WS02006280           JUNCTION      0.00   216.67     0  02:18           0       0.924       0.007
  WS02006284           JUNCTION      0.10   216.67     0  02:17      0.0027       0.925       0.116
  WS02006287           JUNCTION      0.00   216.56     0  02:17           0       0.923       0.079
  WSF200               JUNCTION      0.00   494.10     0  02:43           0        6.69       0.043
  HS02004901           JUNCTION     11.75    11.75     0  02:10      0.0324      0.0326       5.696
  HS02004881           JUNCTION      4.76    41.22     0  02:17      0.0142       0.149       0.187
  HS02004876           JUNCTION      7.61    36.76     0  02:17      0.0271       0.135       0.391
  HS02004870           JUNCTION      8.41    29.30     0  02:17      0.0268       0.108       0.098
  HS02004862           JUNCTION      6.94    21.43     0  02:18      0.0324      0.0817       0.206
  HS02004856           JUNCTION      6.23    14.54     0  02:17      0.0202      0.0507       2.924
  HS02004852           JUNCTION      0.00     8.69     0  02:18           0      0.0306       0.166
  HS02004848           JUNCTION     13.89    13.89     0  02:20      0.0639      0.0639       0.068
  HS02004842           JUNCTION      0.00     5.68     0  02:30           0      0.0463      39.057
  HS02004837           JUNCTION     19.86    24.66     0  02:17       0.226       0.259       0.312
  HS02004830           JUNCTION      0.15    24.80     0  02:17     0.00423       0.249       0.496
  HS02004824           JUNCTION     15.66    40.27     0  02:21      0.0837       0.332       0.163
  HS02004817           JUNCTION      0.60    40.87     0  02:21      0.0169       0.348       5.026
  HS02004807           JUNCTION     15.82    55.30     0  02:19      0.0493       0.381       1.122
  HS02004802           JUNCTION      0.00    55.62     0  02:20           0       0.377       1.089
  HS02004799           JUNCTION     12.19   137.51     0  02:15      0.0399       0.481       0.476
  HS02004792           JUNCTION     54.38   125.56     0  02:15       0.174       0.442       0.093
  HS02004788           JUNCTION     18.21    73.12     0  02:15       0.102       0.269       0.145
  HS02004785           JUNCTION      0.15    55.24     0  02:15     0.00423       0.168       0.287
  HS02004777           JUNCTION      0.03    55.54     0  02:13    0.000846       0.169       3.164
  HS02004770           JUNCTION     46.08    56.60     0  02:12       0.139        0.17       1.860
  HS02004480           JUNCTION      0.00   162.20     0  02:16           0       0.562       0.130
  HS02004479           JUNCTION      0.00    25.16     0  02:17           0      0.0929       0.791
  HS02004478           JUNCTION      0.00   216.54     0  02:17           0       0.923       0.067
  YS02001745           JUNCTION     79.77    79.77     0  03:01       0.861       0.861       0.111
  YS02001748           JUNCTION      0.04    79.81     0  03:01     0.00127       0.862       0.918
  YS02001751           JUNCTION      0.01   105.74     0  02:50     0.00031       0.855       1.907
  YS02001754           JUNCTION      0.26   108.61     0  02:48     0.00733       0.845       2.695
  YS02001762           JUNCTION      0.00   119.43     0  02:43           0       0.931       2.313
  YS02001765           JUNCTION      0.00   118.64     0  02:44           0       0.933       2.672
  YS02001767           JUNCTION      0.54   126.03     0  02:47      0.0151       0.954       3.889
  YS02001770           JUNCTION    102.39   123.12     0  02:45           1        1.05       3.086
  YS02001774           JUNCTION      0.00    42.98     0  02:14           0       0.135      22.975
  YS02001779           JUNCTION      0.01    37.61     0  04:54    0.000141      0.0611      28.912
  YS02001882           JUNCTION      0.00     4.17     0  02:09           0     0.00541      45.532
  YS02001884           JUNCTION      0.00    11.59     0  02:06           0      0.0217      29.201
  YS02001759           JUNCTION    100.07   214.73     0  02:43       0.937        1.83       1.244
  YS02001887           JUNCTION    131.64   131.64     0  02:42        1.12        1.13       0.642
  YS02001890           JUNCTION      0.00   130.72     0  02:45           0         1.1       0.720
  YS02001898           JUNCTION      0.00   130.12     0  02:46           0        1.09       0.204
  YS02001901           JUNCTION      0.00   129.87     0  02:48           0        1.09       0.512
  YS02001904           JUNCTION      0.00   129.68     0  02:48           0        1.09       0.476
  YS02001907           JUNCTION      0.00   236.01     0  02:55           0        2.34       0.956
  YS02001910           JUNCTION      0.00   107.97     0  03:00           0        1.26       0.818
  YS02001915           JUNCTION     71.39   107.58     0  03:01       0.736        1.26       0.366
  YS02001918           JUNCTION      0.00    36.54     0  03:02           0       0.527       0.220
  YS02001619           JUNCTION     69.43    69.43     0  02:58       0.726       0.726       1.042
  YS02001629           JUNCTION      0.00    88.12     0  04:42           0       0.672       3.156
  YS02001641           JUNCTION      0.00   156.59     0  03:04           0        1.42       1.502
  YS02001644           JUNCTION     75.80   235.47     0  03:04       0.826        2.22       1.189
  YS02001652           JUNCTION      0.00   129.77     0  02:59           0         0.8       2.553
  YS02001655           JUNCTION      0.15   122.60     0  04:45     0.00434       0.838       2.135
  YS02001920           JUNCTION      2.87    36.56     0  03:02      0.0809       0.529       0.393
  YS02001923           JUNCTION      0.04    33.69     0  03:01     0.00106       0.448       0.069
  YS02001926           JUNCTION      0.05    33.72     0  03:01     0.00147       0.449       0.491
  YS02001929           JUNCTION     33.68    33.68     0  03:01       0.448       0.448       0.067
  YS02001658           JUNCTION      0.00   123.16     0  04:38           0       0.893       0.898
  YS02001661           JUNCTION      0.00    93.34     0  02:45           0        0.87       0.104
  YS02001664           JUNCTION     93.34    93.34     0  02:45       0.818       0.818       0.019
  YS02001622           JUNCTION      0.00    79.39     0  02:44           0       0.734       2.945
  YS02001633           JUNCTION     77.07   160.35     0  03:04        0.85        1.48       2.222
  YS02001649           JUNCTION      0.00   320.86     0  02:58           0        2.93       1.264
  YS02001757           JUNCTION      0.00   580.20     0  02:55           0        5.49       1.704
  YS02001895           JUNCTION      0.00   130.38     0  02:45           0        1.09       0.345
  YS02001625           JUNCTION      0.00    87.31     0  04:42           0       0.721       5.219
  YS02163301           JUNCTION      0.00    95.12     0  03:05           0       0.654       3.771
  YS02163601           JUNCTION      0.11   152.93     0  02:45      0.0031        1.44       2.129
  YS02164001           JUNCTION      0.00   152.20     0  02:45           0        1.42       1.428
  YS02001647           JUNCTION      0.00   237.55     0  03:04           0        2.18       1.230
  YSB1154              JUNCTION     13.53    13.53     0  02:15      0.0483      0.0496       2.997
  YSB6556              JUNCTION      0.00    13.53     0  02:17           0      0.0506       2.526
  YSB1174              JUNCTION     13.37    13.37     0  02:09      0.0352      0.0362       3.679
  YSB1171              JUNCTION      0.00    25.16     0  02:15           0      0.0923       7.353
  YS02006553           JUNCTION      0.00   236.11     0  02:56           0        2.32       0.620
  YS02006561           JUNCTION      0.00   352.76     0  02:59           0        3.29       0.020
  YS02006556           JUNCTION      0.00   236.25     0  02:59           0        2.33       0.448
  YS02006558           JUNCTION    111.46   346.48     0  02:53        1.02        3.32       0.137
  YS02001783           JUNCTION      0.00   346.48     0  02:54           0        3.29       0.048
  YS02001784           JUNCTION      1.06   347.53     0  02:54      0.0299        3.32       0.078
  YS02001786           JUNCTION      0.06   347.59     0  02:54     0.00159        3.32       0.076
  YS02001788           JUNCTION      0.07   347.66     0  02:54       0.002        3.32       0.044
  YS02001790           JUNCTION      0.15   347.82     0  02:54     0.00437        3.32       0.054
  YS02001791           JUNCTION      0.00   347.82     0  02:54           0        3.32       0.028
  YS02001793           JUNCTION      0.00   347.82     0  02:55           0        3.32       0.010
  WS02004139           JUNCTION      0.32   379.54     0  07:00     0.00905        6.67       0.545
  WSC                  OUTFALL       0.00   781.85     0  02:56           0        13.8       0.000
  3                    OUTFALL       0.00   496.70     0  02:40           0        2.88       0.000
  4                    OUTFALL       0.00   104.53     0  03:49           0       0.158       0.000
  5                    OUTFALL       0.00     0.00     0  00:00           0           0       0.000 ltr
  JK-storage           STORAGE       0.00   349.17     0  02:50           0        3.47     -27.467
  CC-storage           STORAGE       0.00   580.91     0  02:55           0        5.39       0.490
  XR-storage           STORAGE     329.23   329.23     0  02:54        7.08        7.68      -0.000
  
  
  **********************
  Node Surcharge Summary
  **********************
  
  Surcharging occurs when water rises above the top of the highest conduit.
  ---------------------------------------------------------------------
                                               Max. Height   Min. Depth
                                   Hours       Above Crown    Below Rim
  Node                 Type      Surcharged         Meters       Meters
  ---------------------------------------------------------------------
  WS02006109           JUNCTION        1.21          0.100        1.720
  WS02006112           JUNCTION        0.16          0.008        1.672
  WS02006232           JUNCTION        1.40          0.048        1.432
  WS02006235           JUNCTION        0.34          0.032        1.258
  WS02006238           JUNCTION        0.73          0.051        1.379
  WS02006242           JUNCTION        0.32          0.044        0.776
  WS02006239           JUNCTION        0.14          0.008        1.282
  WS02006252           JUNCTION        1.31          0.185        0.915
  WS02006228           JUNCTION        1.09          0.116        2.084
  YS02001762           JUNCTION        5.17          0.290        0.860
  YS02001765           JUNCTION        5.06          0.264        0.836
  YS02001767           JUNCTION        4.88          0.239        0.791
  YS02001770           JUNCTION        3.55          0.191        0.729
  YS02001774           JUNCTION        5.14          0.266        0.784
  YS02001759           JUNCTION        5.23          0.298        0.912
  YS02001641           JUNCTION        5.12          0.248        0.852
  YS02001644           JUNCTION        5.12          0.250        0.670
  YS02001652           JUNCTION        0.30          0.106        1.024
  YS02001633           JUNCTION        5.01          0.199        0.861
  YS02001649           JUNCTION        5.19          0.285        0.765
  YS02001757           JUNCTION        5.36          0.394        0.816
  YS02001625           JUNCTION        1.00          0.051        0.729
  YS02163301           JUNCTION        3.98          0.153        0.877
  YS02163601           JUNCTION        5.19          0.282        0.798
  YS02164001           JUNCTION        5.06          0.226        0.874
  YS02001647           JUNCTION        0.83          0.070        0.830
  
  
  *********************
  Node Flooding Summary
  *********************
  
  Flooding refers to all water that overflows a node, whether it ponds or not.
  --------------------------------------------------------------------------
                                                             Total   Maximum
                                 Maximum   Time of Max       Flood    Ponded
                        Hours       Rate    Occurrence      Volume     Depth
  Node                 Flooded       LPS   days hr:min    10^6 ltr    Meters
  --------------------------------------------------------------------------
  XR-storage              0.90    263.67      0  04:50       0.402     0.000
  
  
  **********************
  Storage Volume Summary
  **********************
  
  --------------------------------------------------------------------------------------------------
                         Average     Avg  Evap Exfil       Maximum     Max    Time of Max    Maximum
                          Volume    Pcnt  Pcnt  Pcnt        Volume    Pcnt     Occurrence    Outflow
  Storage Unit           1000 m3    Full  Loss  Loss       1000 m3    Full    days hr:min        LPS
  --------------------------------------------------------------------------------------------------
  JK-storage               0.014       5     0     0         0.153      52       0  00:40     600.00
  CC-storage               1.223       8     0     0         1.722      11       0  04:36     400.00
  XR-storage               0.750      81     0     0         0.926     100       0  04:02     379.98
  
  
  ***********************
  Outfall Loading Summary
  ***********************
  
  -----------------------------------------------------------
                         Flow       Avg       Max       Total
                         Freq      Flow      Flow      Volume
  Outfall Node           Pcnt       LPS       LPS    10^6 ltr
  -----------------------------------------------------------
  WSC                  100.00    573.48    781.85      13.820
  3                     75.31    202.89    496.70       2.884
  4                     21.87     37.17    104.53       0.158
  5                      0.00      0.00      0.00       0.000
  -----------------------------------------------------------
  System                49.29    813.54   1236.93      16.862
  
  
  ********************
  Link Flow Summary
  ********************
  
  -----------------------------------------------------------------------------
                                 Maximum  Time of Max   Maximum    Max/    Max/
                                  |Flow|   Occurrence   |Veloc|    Full    Full
  Link                 Type          LPS  days hr:min     m/sec    Flow   Depth
  -----------------------------------------------------------------------------
  WS02003066WSF200     CONDUIT    494.10     0  02:43      2.68    0.08    0.22
  WS02006287WS02006284 CONDUIT    216.57     0  02:17      1.65    0.10    0.22
  WS02006284WS02006280 CONDUIT    216.67     0  02:18      1.89    0.09    0.20
  WS02006280WS02006229 CONDUIT    216.68     0  02:18      3.04    0.05    0.15
  WS02006229WS02006228 CONDUIT    490.97     0  02:35      0.98    1.63    1.00
  WS02006256WS02006235 CONDUIT    149.95     0  00:45      2.14    1.59    1.00
  WS02006253WS02006251 CONDUIT     43.53     0  02:21      0.50    0.13    0.90
  WS02006252WS02006251 CONDUIT    400.15     0  03:40      3.18    1.47    1.00
  WS02006251WS02006249 CONDUIT    404.02     0  03:48      1.18    1.16    0.87
  WS02006249WS02006248 CONDUIT    353.69     0  03:40      1.15    1.94    0.83
  WS02006248WS02006247 CONDUIT    347.47     0  03:41      1.11    0.76    0.87
  WS02006247WS02006245 CONDUIT    342.18     0  04:41      1.07    2.71    0.91
  WS02006245WS02006243 CONDUIT    339.90     0  04:41      1.10    1.01    0.92
  WS02006243WS02006242 CONDUIT    335.43     0  05:01      0.99    0.72    0.98
  WS02006242WS02006240 CONDUIT    334.49     0  05:00      0.94    1.33    0.99
  WS02006240WS02006239 CONDUIT    335.17     0  05:00      0.97    1.05    1.00
  WS02006239WS02006238 CONDUIT    335.56     0  05:00      0.90    1.07    1.00
  WS02006238WS02006235 CONDUIT    333.51     0  05:00      0.89    0.74    1.00
  WS02006235WS02006234 CONDUIT    391.11     0  03:43      1.04    4.13    0.99
  WS02006234WS02006232 CONDUIT    387.65     0  03:44      1.01    0.78    1.00
  WS02006232WS02006231 CONDUIT    387.29     0  03:44      1.05    0.81    0.93
  WS02006231WS02006230 CONDUIT    387.16     0  03:49      1.35    5.87    0.84
  WS02006230WS02006229 CONDUIT    397.62     0  03:50      1.03    8.85    1.00
  WS02006228WS02006109 CONDUIT    490.98     0  02:35      0.98    2.15    1.00
  WS02006116WS02004401 CONDUIT    497.22     0  02:38      0.74    0.69    0.81
  WS02006115WS02006116 CONDUIT    498.06     0  02:38      0.93    0.64    0.73
  WS02006113WS02006111 CONDUIT    509.12     0  02:35      2.39    0.61    0.44
  WS02006112WS02006115 CONDUIT    499.71     0  02:37      0.70    0.29    0.85
  WS02006111WS02006112 CONDUIT    496.54     0  02:35      1.40    0.24    0.67
  WS02006110WS02006113 CONDUIT    492.61     0  02:35      1.19    0.45    0.77
  WS02006109WS02006110 CONDUIT    492.22     0  02:35      0.98    0.95    0.99
  WS02004411WS02004412 CONDUIT    494.29     0  02:42      0.89    0.70    0.67
  WS02004401WS02004402 CONDUIT    496.83     0  02:38      0.76    0.60    0.83
  WS02004413WS02003067 CONDUIT    494.09     0  02:43      1.06    0.21    0.57
  WS02004412WS02004413 CONDUIT    494.21     0  02:42      0.78    0.33    0.75
  WS02004410WS02004411 CONDUIT    494.45     0  02:41      0.90    0.68    0.66
  WS02004409WS02004410 CONDUIT    495.07     0  02:39      0.93    0.64    0.64
  WS02004407WS02004409 CONDUIT    495.98     0  02:39      1.42    0.18    0.46
  WS02004406WS02004407 CONDUIT    496.16     0  02:39      0.99    0.22    0.61
  WS02004405WS02004406 CONDUIT    496.44     0  02:39      0.67    0.98    0.93
  WS02004404WS02004405 CONDUIT    496.43     0  02:38      0.80    4.86    0.93
  WS02004403WS02004404 CONDUIT    496.40     0  02:38      0.80    0.36    0.90
  WS02004402WS02004403 CONDUIT    496.50     0  02:38      0.85    0.71    0.85
  WS02004139WS02001211 CONDUIT    372.83     0  03:20      0.58    0.47    0.57
  WS02004138WS02004139 CONDUIT    379.22     0  07:00      2.39    0.08    0.42
  WS02003067WS02003066 CONDUIT    494.09     0  02:43      1.15    0.16    0.40
  WS02001213WS02003059 CONDUIT    369.40     0  03:21      0.67    0.61    0.73
  WS02001212WS02001213 CONDUIT    372.07     0  03:21      1.30    0.57    0.43
  WS02001211WS02001212 CONDUIT    374.65     0  03:20      0.76    0.29    0.62
  WS02003072WS02003073 CONDUIT    779.89     0  02:55      1.62    1.68    0.44
  WS02003069WS02003072 CONDUIT    779.78     0  02:55      1.53    0.38    0.46
  WS02003060WS02003069 CONDUIT    779.52     0  02:55      1.78    0.31    0.41
  WS02003059WS02003060 CONDUIT    366.82     0  07:02      0.90    0.24    0.61
  HS02004901HS02004770 CONDUIT     10.92     0  02:14      0.05    0.04    0.33
  HS02004876HS02004881 CONDUIT     36.84     0  02:17      0.59    0.39    0.09
  HS02004870HS02004876 CONDUIT     29.28     0  02:18      0.41    0.02    0.10
  HS02004842HS02004848 CONDUIT      5.68     0  02:30      0.03    0.00    0.28
  HS02004837HS02004842 CONDUIT      5.87     0  02:31      0.42    0.00    0.29
  HS02004830HS02004837 CONDUIT     24.65     0  02:17      0.45    0.02    0.08
  HS02004824HS02004830 CONDUIT     24.80     0  02:18      0.49    0.03    0.07
  HS02004817HS02004824 CONDUIT     40.27     0  02:21      0.17    0.02    0.40
  HS02004770HS02004777 CONDUIT     55.51     0  02:13      0.23    0.10    0.34
  HS02004799HS02004480 CONDUIT    137.29     0  02:16      0.61    0.17    0.32
  HS02004792HS02004799 CONDUIT    125.49     0  02:15      0.70    0.08    0.26
  HS02004788HS02004792 CONDUIT     73.05     0  02:16      0.85    0.05    0.12
  HS02004785HS02004788 CONDUIT     55.14     0  02:16      0.53    0.42    0.15
  HS02004777HS02004785 CONDUIT     55.09     0  02:15      0.28    0.07    0.28
  HS02004480HS02004478 CONDUIT    162.12     0  02:16      0.98    0.68    0.24
  HS02004479HS02004480 CONDUIT     25.41     0  02:18      0.16    0.02    0.31
  HS02004862HS02004870 CONDUIT     21.39     0  02:19      0.48    0.02    0.06
  HS02004848HS02004852 CONDUIT      8.69     0  02:18      0.32    0.01    0.04
  HS02004856HS02004862 CONDUIT     14.51     0  02:18      0.35    0.01    0.06
  HS02004852HS02004856 CONDUIT      8.65     0  02:19      0.13    0.01    0.09
  HS02004802HS02004478 CONDUIT     56.03     0  02:21      0.31    0.05    0.26
  HS02004478WS02006287 CONDUIT    216.56     0  02:17      1.35    0.06    0.18
  HS02004817HS02004807 CONDUIT     41.45     0  02:23      0.12    0.02    0.52
  HS02004807HS02004802 CONDUIT     55.62     0  02:20      0.26    0.11    0.31
  YS02001759YS02001757 CONDUIT    212.00     0  02:56      0.27    0.15    1.00
  YS02001762YS02001759 CONDUIT    115.07     0  02:43      0.18    0.13    1.00
  YS02001765YS02001762 CONDUIT    119.43     0  02:43      0.23    0.11    1.00
  YS02001770YS02001767 CONDUIT    125.50     0  02:47      0.30    0.50    1.00
  YS02001774YS02001770 CONDUIT     42.98     0  02:14      0.14    0.03    1.00
  YS02001779YS02001774 CONDUIT     37.61     0  04:54      0.07    0.02    1.00
  YS02001649YS02001757 CONDUIT    322.55     0  03:01      0.41    0.20    1.00
  YS02001767YS02001765 CONDUIT    118.64     0  02:44      0.25    0.15    1.00
  YS02006561YS02001783 CONDUIT    346.48     0  02:54      1.84    0.18    0.40
  YS02001783YS02001784 CONDUIT    346.47     0  02:54      1.27    0.48    0.53
  YS02001784YS02001785 CONDUIT    347.53     0  02:54      1.36    0.81    0.51
  YS02001788YS02001790 CONDUIT    347.66     0  02:54      1.92    0.26    0.39
  YS02001790YS02001791 CONDUIT    347.82     0  02:54      2.22    0.38    0.35
  YS02001791YS02001793 CONDUIT    347.82     0  02:55      4.53    0.15    0.23
  YS02001910YS02001907 CONDUIT    108.18     0  03:01      0.50    0.06    0.76
  YS02001786YS02001788 CONDUIT    347.59     0  02:54      1.80    0.67    0.41
  YS02001915YS02001910 CONDUIT    107.97     0  03:00      0.45    0.05    0.55
  YS02001918YS02001915 CONDUIT     36.52     0  03:03      0.44    0.02    0.27
  YS02001923YS02001920 CONDUIT     33.69     0  03:02      0.47    0.02    0.15
  YS02001926YS02001923 CONDUIT     33.65     0  03:01      0.51    0.05    0.14
  YS02001929YS02001926 CONDUIT     33.67     0  03:01      0.54    0.02    0.13
  YS02001920YS02001918 CONDUIT     36.54     0  03:02      0.48    0.04    0.15
  YS02001629YS02163301 CONDUIT     95.12     0  03:05      0.12    0.12    1.00
  YS02001619YS02001622 CONDUIT     79.39     0  02:44      0.66    0.12    0.74
  YS02001622YS02001625 CONDUIT     87.31     0  04:42      0.25    0.05    0.88
  YS02001625YS02001629 CONDUIT     88.12     0  04:42      0.25    0.04    0.87
  YS02163301YS02001633 CONDUIT     85.27     0  03:04      0.11    0.08    1.00
  YS02163601YS02164001 CONDUIT    152.20     0  02:45      0.19    0.13    1.00
  YS02164001YS02001641 CONDUIT    156.59     0  03:04      0.20    0.21    1.00
  YS02001641YS02001644 CONDUIT    161.49     0  03:04      0.21    0.52    1.00
  YS02001647YS02001649 CONDUIT    236.17     0  03:03      0.31    0.12    1.00
  YS02006553YS02006556 CONDUIT    236.25     0  02:59      0.34    0.20    0.84
  YS02006556YS02006558 CONDUIT    236.58     0  02:59      0.33    0.19    0.87
  YSB6556YSB1171       CONDUIT     13.76     0  02:19      0.06    0.01    0.58
  YS02001907YS02006553 CONDUIT    236.11     0  02:56      0.27    0.28    0.96
  YS02006558YS02006561 CONDUIT    352.76     0  02:59      2.40    0.78    0.52
  YS02001633YS02163601 CONDUIT    152.82     0  02:45      0.19    0.16    1.00
  YS02001644YS02001647 CONDUIT    237.55     0  03:04      0.31    0.14    1.00
  YS02001745YS02001748 CONDUIT     79.77     0  03:01      1.42    0.03    0.31
  YS02001748YS02001751 CONDUIT    105.73     0  02:50      1.10    0.05    0.66
  YS02001751YS02001754 CONDUIT    108.35     0  02:48      0.97    0.05    0.88
  YS02001754YS02001757 CONDUIT     98.65     0  02:50      0.33    0.04    1.00
  YS02001882YS02001884 CONDUIT      4.17     0  02:09      0.06    0.00    0.49
  YS02001884YS02001887 CONDUIT     11.59     0  02:06      0.06    0.02    0.58
  YS02001890YS02001895 CONDUIT    130.38     0  02:45      0.30    0.06    0.55
  YS02001895YS02001898 CONDUIT    130.12     0  02:46      0.48    0.23    0.41
  YS02001898YS02001901 CONDUIT    129.87     0  02:48      0.34    0.08    0.49
  YS02001901YS02001904 CONDUIT    129.68     0  02:48      0.30    0.20    0.54
  YS02001904YS02001907 CONDUIT    129.61     0  02:50      0.22    0.05    0.70
  YS02001887YS02001890 CONDUIT    130.72     0  02:45      0.25    0.22    0.63
  YS02001652YS02001649 CONDUIT    129.64     0  02:37      0.32    0.06    1.00
  YS02001655YS02001652 CONDUIT    129.77     0  02:59      1.04    0.06    0.92
  YS02001658YS02001655 CONDUIT    112.74     0  02:57      1.27    0.05    0.67
  YS02001661YS02001658 CONDUIT    123.16     0  04:38      1.48    0.05    0.34
  YS02001664YS02001661 CONDUIT     93.34     0  02:45      1.16    0.03    0.17
  YSB1154YSB6556       CONDUIT     13.53     0  02:17      0.19    0.02    0.47
  YSB1174YSB1171       CONDUIT     12.43     0  02:10      0.06    0.02    0.59
  YSB1171HS02004479    CONDUIT     25.16     0  02:17      0.54    0.02    0.46
  HS02004881HS02006253 CONDUIT     41.21     0  02:17      1.70    0.01    0.22
  YS02001793JiankangQianchi CONDUIT    349.17     0  02:50     13.58    0.03    0.56
  YS02001757CaochengTiaoxuchi CONDUIT    580.91     0  02:55      1.24    0.26    0.81
  WSF200WS02003060     CONDUIT    494.31     0  02:43      1.80    0.11    0.31
  1                    CONDUIT    781.85     0  02:56      3.11    0.27    0.36
  2                    CONDUIT    104.53     0  03:49      4.91    0.25    0.34
  3                    CONDUIT    496.70     0  02:40      9.79    0.79    0.68
  4                    CONDUIT      0.00     0  00:00      0.00    0.00    0.00
  CC-Pump-1            PUMP       200.00     0  03:10              1.00
  CC-Pump-2            PUMP       200.00     0  03:40              1.00
  JK-Pump-1            PUMP       300.00     0  03:00              1.00
  JK-Pump-2            PUMP       300.00     0  00:50              1.00
  XR-Pump-1            PUMP        95.00     0  00:50              1.00
  XR-Pump-2            PUMP        95.00     0  00:00              1.00
  XR-Pump-3            PUMP        95.00     0  01:00              1.00
  XR-Pump-4            PUMP        95.00     0  00:20              1.00
  
  
  ***************************
  Flow Classification Summary
  ***************************
  
  -------------------------------------------------------------------------------------
                      Adjusted    ---------- Fraction of Time in Flow Class ---------- 
                       /Actual         Up    Down  Sub   Sup   Up    Down  Norm  Inlet 
  Conduit               Length    Dry  Dry   Dry   Crit  Crit  Crit  Crit  Ltd   Ctrl  
  -------------------------------------------------------------------------------------
  WS02003066WSF200        1.00   0.06  0.00  0.00  0.00  0.94  0.00  0.00  0.73  0.00
  WS02006287WS02006284    1.00   0.03  0.03  0.00  0.68  0.27  0.00  0.00  0.77  0.00
  WS02006284WS02006280    1.00   0.04  0.00  0.00  0.00  0.00  0.00  0.96  0.00  0.00
  WS02006280WS02006229    1.00   0.04  0.00  0.00  0.00  0.00  0.00  0.96  0.00  0.00
  WS02006229WS02006228    1.00   0.00  0.00  0.00  1.00  0.00  0.00  0.00  0.00  0.00
  WS02006256WS02006235    1.00   0.02  0.00  0.00  0.98  0.00  0.00  0.00  0.00  0.00
  WS02006253WS02006251    1.00   0.01  0.03  0.00  0.96  0.00  0.00  0.00  0.00  0.00
  WS02006252WS02006251    1.00   0.08  0.00  0.00  0.00  0.00  0.92  0.00  0.00  0.00
  WS02006251WS02006249    1.00   0.00  0.00  0.00  1.00  0.00  0.00  0.00  0.29  0.00
  WS02006249WS02006248    1.00   0.00  0.00  0.00  0.90  0.00  0.10  0.00  0.00  0.00
  WS02006248WS02006247    1.00   0.00  0.00  0.00  0.99  0.00  0.00  0.01  0.18  0.00
  WS02006247WS02006245    1.00   0.00  0.00  0.00  0.97  0.00  0.00  0.03  0.00  0.00
  WS02006245WS02006243    1.00   0.01  0.00  0.00  0.95  0.00  0.00  0.04  0.01  0.00
  WS02006243WS02006242    1.00   0.01  0.00  0.00  0.98  0.00  0.00  0.01  0.19  0.00
  WS02006242WS02006240    1.00   0.01  0.01  0.00  0.98  0.00  0.00  0.00  0.00  0.00
  WS02006240WS02006239    1.00   0.02  0.00  0.00  0.96  0.00  0.00  0.03  0.01  0.00
  WS02006239WS02006238    1.00   0.02  0.00  0.00  0.98  0.00  0.00  0.00  0.00  0.00
  WS02006238WS02006235    1.00   0.02  0.00  0.00  0.98  0.00  0.00  0.00  0.00  0.00
  WS02006235WS02006234    1.00   0.02  0.00  0.00  0.96  0.00  0.03  0.00  0.00  0.00
  WS02006234WS02006232    1.00   0.02  0.00  0.00  0.98  0.00  0.00  0.00  0.02  0.00
  WS02006232WS02006231    1.00   0.02  0.00  0.00  0.98  0.00  0.00  0.00  0.00  0.00
  WS02006231WS02006230    1.00   0.02  0.00  0.00  0.55  0.00  0.44  0.00  0.00  0.00
  WS02006230WS02006229    1.00   0.00  0.00  0.00  0.99  0.00  0.00  0.01  0.01  0.00
  WS02006228WS02006109    1.00   0.00  0.00  0.00  1.00  0.00  0.00  0.00  0.00  0.00
  WS02006116WS02004401    1.00   0.03  0.00  0.00  0.97  0.00  0.00  0.00  0.00  0.00
  WS02006115WS02006116    1.00   0.03  0.00  0.00  0.96  0.00  0.00  0.01  0.00  0.00
  WS02006113WS02006111    1.00   0.01  0.00  0.00  0.01  0.98  0.00  0.00  0.13  0.00
  WS02006112WS02006115    1.00   0.01  0.01  0.00  0.97  0.00  0.01  0.00  0.00  0.00
  WS02006111WS02006112    1.00   0.01  0.00  0.00  0.99  0.00  0.00  0.00  0.92  0.00
  WS02006110WS02006113    1.00   0.00  0.01  0.00  0.99  0.00  0.00  0.00  0.00  0.00
  WS02006109WS02006110    1.00   0.00  0.00  0.00  1.00  0.00  0.00  0.00  0.00  0.00
  WS02004411WS02004412    1.00   0.04  0.00  0.00  0.96  0.00  0.00  0.00  0.00  0.00
  WS02004401WS02004402    1.00   0.03  0.00  0.00  0.97  0.00  0.00  0.00  0.00  0.00
  WS02004413WS02003067    1.00   0.05  0.01  0.00  0.00  0.00  0.95  0.00  0.00  0.00
  WS02004412WS02004413    1.00   0.05  0.00  0.00  0.95  0.00  0.00  0.00  0.01  0.00
  WS02004410WS02004411    1.00   0.04  0.00  0.00  0.96  0.00  0.00  0.00  0.01  0.00
  WS02004409WS02004410    1.00   0.04  0.00  0.00  0.96  0.00  0.00  0.00  0.03  0.00
  WS02004407WS02004409    1.00   0.04  0.00  0.00  0.95  0.00  0.00  0.00  0.85  0.00
  WS02004406WS02004407    1.00   0.00  0.04  0.00  0.96  0.00  0.00  0.00  0.00  0.00
  WS02004405WS02004406    1.00   0.00  0.00  0.00  1.00  0.00  0.00  0.00  0.04  0.00
  WS02004404WS02004405    1.00   0.00  0.00  0.00  1.00  0.00  0.00  0.00  0.00  0.00
  WS02004403WS02004404    1.00   0.00  0.03  0.00  0.97  0.00  0.00  0.00  0.01  0.00
  WS02004402WS02004403    1.00   0.03  0.00  0.00  0.97  0.00  0.00  0.00  0.00  0.00
  WS02004139WS02001211    1.00   0.00  0.00  0.00  1.00  0.00  0.00  0.00  0.00  0.00
  WS02004138WS02004139    1.00   0.00  0.00  0.00  1.00  0.00  0.00  0.00  1.00  0.00
  WS02003067WS02003066    1.00   0.05  0.00  0.00  0.94  0.00  0.00  0.00  0.00  0.00
  WS02001213WS02003059    1.00   0.00  0.00  0.00  1.00  0.00  0.00  0.00  0.00  0.00
  WS02001212WS02001213    1.00   0.00  0.00  0.00  0.87  0.00  0.13  0.00  0.00  0.00
  WS02001211WS02001212    1.00   0.00  0.00  0.00  1.00  0.00  0.00  0.00  0.00  0.00
  WS02003072WS02003073    1.00   0.00  0.00  0.00  0.00  0.00  0.00  1.00  0.00  0.00
  WS02003069WS02003072    1.00   0.00  0.00  0.00  1.00  0.00  0.00  0.00  0.28  0.00
  WS02003060WS02003069    1.00   0.00  0.00  0.00  1.00  0.00  0.00  0.00  0.14  0.00
  WS02003059WS02003060    1.00   0.00  0.00  0.00  1.00  0.00  0.00  0.00  0.02  0.00
  HS02004901HS02004770    1.00   0.04  0.00  0.00  0.96  0.00  0.00  0.00  0.02  0.00
  HS02004876HS02004881    1.00   0.00  0.00  0.00  1.00  0.00  0.00  0.00  0.00  0.00
  HS02004870HS02004876    1.00   0.00  0.00  0.00  1.00  0.00  0.00  0.00  0.95  0.00
  HS02004842HS02004848    1.00   0.00  0.04  0.00  0.96  0.00  0.00  0.00  0.68  0.00
  HS02004837HS02004842    1.00   0.00  0.00  0.00  1.00  0.00  0.00  0.00  0.11  0.00
  HS02004830HS02004837    1.00   0.00  0.00  0.00  1.00  0.00  0.00  0.00  0.99  0.00
  HS02004824HS02004830    1.00   0.00  0.00  0.00  1.00  0.00  0.00  0.00  0.00  0.00
  HS02004817HS02004824    1.00   0.00  0.00  0.00  1.00  0.00  0.00  0.00  1.00  0.00
  HS02004770HS02004777    1.00   0.00  0.04  0.00  0.96  0.00  0.00  0.00  0.07  0.00
  HS02004799HS02004480    1.00   0.00  0.01  0.00  0.94  0.00  0.05  0.00  0.00  0.00
  HS02004792HS02004799    1.00   0.00  0.00  0.00  1.00  0.00  0.00  0.00  0.98  0.00
  HS02004788HS02004792    1.00   0.00  0.00  0.00  1.00  0.00  0.00  0.00  0.98  0.00
  HS02004785HS02004788    1.00   0.00  0.00  0.00  1.00  0.00  0.00  0.00  0.00  0.00
  HS02004777HS02004785    1.00   0.00  0.00  0.00  1.00  0.00  0.00  0.00  0.20  0.00
  HS02004480HS02004478    1.00   0.05  0.00  0.00  0.72  0.00  0.00  0.23  0.00  0.00
  HS02004479HS02004480    1.00   0.01  0.00  0.00  0.99  0.00  0.00  0.00  0.15  0.00
  HS02004862HS02004870    1.00   0.00  0.00  0.00  1.00  0.00  0.00  0.00  0.06  0.00
  HS02004848HS02004852    1.00   0.04  0.00  0.00  0.96  0.00  0.00  0.00  0.71  0.00
  HS02004856HS02004862    1.00   0.00  0.07  0.00  0.93  0.00  0.00  0.00  0.75  0.00
  HS02004852HS02004856    1.00   0.04  0.01  0.00  0.95  0.00  0.00  0.00  0.83  0.00
  HS02004802HS02004478    1.00   0.04  0.00  0.00  0.95  0.00  0.00  0.00  0.01  0.00
  HS02004478WS02006287    1.00   0.05  0.00  0.00  0.87  0.08  0.00  0.00  0.77  0.00
  HS02004817HS02004807    1.00   0.00  0.04  0.00  0.96  0.00  0.00  0.00  0.00  0.00
  HS02004807HS02004802    1.00   0.04  0.00  0.00  0.95  0.00  0.00  0.00  0.01  0.00
  YS02001759YS02001757    1.00   0.00  0.00  0.00  1.00  0.00  0.00  0.00  0.17  0.00
  YS02001762YS02001759    1.00   0.00  0.00  0.00  1.00  0.00  0.00  0.00  0.04  0.00
  YS02001765YS02001762    1.00   0.00  0.00  0.00  1.00  0.00  0.00  0.00  0.22  0.00
  YS02001770YS02001767    1.00   0.00  0.00  0.00  1.00  0.00  0.00  0.00  0.00  0.00
  YS02001774YS02001770    1.00   0.00  0.05  0.00  0.95  0.00  0.00  0.00  0.07  0.00
  YS02001779YS02001774    1.00   0.00  0.00  0.00  1.00  0.00  0.00  0.00  0.26  0.00
  YS02001649YS02001757    1.00   0.00  0.00  0.00  1.00  0.00  0.00  0.00  0.19  0.00
  YS02001767YS02001765    1.00   0.00  0.00  0.00  1.00  0.00  0.00  0.00  0.01  0.00
  YS02006561YS02001783    1.00   0.07  0.00  0.00  0.00  0.93  0.00  0.00  0.74  0.00
  YS02001783YS02001784    1.00   0.00  0.07  0.00  0.93  0.00  0.00  0.00  0.00  0.00
  YS02001784YS02001785    1.00   0.00  0.00  0.00  1.00  0.00  0.00  0.00  0.25  0.00
  YS02001788YS02001790    1.00   0.00  0.00  0.00  0.07  0.93  0.00  0.00  0.75  0.00
  YS02001790YS02001791    1.00   0.00  0.00  0.00  0.00  1.00  0.00  0.00  0.57  0.00
  YS02001791YS02001793    1.00   0.00  0.00  0.00  0.00  1.00  0.00  0.00  0.00  0.00
  YS02001910YS02001907    1.00   0.00  0.00  0.00  0.99  0.00  0.00  0.00  0.13  0.00
  YS02001786YS02001788    1.00   0.00  0.00  0.00  0.07  0.93  0.00  0.00  0.00  0.00
  YS02001915YS02001910    1.00   0.00  0.00  0.00  1.00  0.00  0.00  0.00  0.24  0.00
  YS02001918YS02001915    1.00   0.00  0.00  0.00  1.00  0.00  0.00  0.00  0.82  0.00
  YS02001923YS02001920    1.00   0.00  0.00  0.00  1.00  0.00  0.00  0.00  1.00  0.00
  YS02001926YS02001923    1.00   0.00  0.01  0.00  0.00  0.00  0.99  0.00  0.00  0.00
  YS02001929YS02001926    1.00   0.00  0.04  0.00  0.96  0.00  0.00  0.00  0.87  0.00
  YS02001920YS02001918    1.00   0.00  0.00  0.00  1.00  0.00  0.00  0.00  0.00  0.00
  YS02001629YS02163301    1.00   0.06  0.00  0.00  0.94  0.00  0.00  0.00  0.00  0.00
  YS02001619YS02001622    1.00   0.04  0.00  0.00  0.96  0.00  0.00  0.00  0.00  0.00
  YS02001622YS02001625    1.00   0.04  0.00  0.00  0.96  0.00  0.00  0.00  0.13  0.00
  YS02001625YS02001629    1.00   0.04  0.03  0.00  0.92  0.00  0.01  0.00  0.00  0.00
  YS02163301YS02001633    1.00   0.00  0.06  0.00  0.94  0.00  0.00  0.00  0.00  0.00
  YS02163601YS02164001    1.00   0.00  0.01  0.00  0.99  0.00  0.00  0.00  0.00  0.00
  YS02164001YS02001641    1.00   0.00  0.01  0.00  0.99  0.00  0.00  0.00  0.07  0.00
  YS02001641YS02001644    1.00   0.00  0.00  0.00  1.00  0.00  0.00  0.00  0.00  0.00
  YS02001647YS02001649    1.00   0.00  0.07  0.00  0.93  0.00  0.00  0.00  0.01  0.00
  YS02006553YS02006556    1.00   0.00  0.00  0.00  1.00  0.00  0.00  0.00  0.03  0.00
  YS02006556YS02006558    1.00   0.00  0.00  0.00  1.00  0.00  0.00  0.00  0.00  0.00
  YSB6556YSB1171          1.00   0.01  0.03  0.00  0.96  0.00  0.00  0.00  0.00  0.00
  YS02001907YS02006553    1.00   0.00  0.00  0.00  1.00  0.00  0.00  0.00  0.00  0.00
  YS02006558YS02006561    1.00   0.07  0.00  0.00  0.00  0.93  0.00  0.00  0.69  0.00
  YS02001633YS02163601    1.00   0.00  0.00  0.00  1.00  0.00  0.00  0.00  0.19  0.00
  YS02001644YS02001647    1.00   0.00  0.07  0.00  0.93  0.00  0.00  0.00  0.00  0.00
  YS02001745YS02001748    1.00   0.00  0.00  0.00  0.87  0.01  0.00  0.11  0.51  0.00
  YS02001748YS02001751    1.00   0.00  0.00  0.00  0.98  0.02  0.00  0.00  0.24  0.00
  YS02001751YS02001754    1.00   0.00  0.00  0.00  0.93  0.00  0.00  0.07  0.02  0.00
  YS02001754YS02001757    1.00   0.00  0.00  0.00  1.00  0.00  0.00  0.00  0.26  0.00
  YS02001882YS02001884    1.00   0.06  0.00  0.00  0.94  0.00  0.00  0.00  0.00  0.00
  YS02001884YS02001887    1.00   0.01  0.03  0.00  0.96  0.00  0.00  0.00  0.00  0.00
  YS02001890YS02001895    1.00   0.00  0.06  0.00  0.94  0.00  0.00  0.00  0.00  0.00
  YS02001895YS02001898    1.00   0.06  0.00  0.00  0.93  0.00  0.01  0.00  0.00  0.00
  YS02001898YS02001901    1.00   0.06  0.00  0.00  0.94  0.00  0.00  0.00  0.02  0.00
  YS02001901YS02001904    1.00   0.06  0.00  0.00  0.94  0.00  0.00  0.00  0.00  0.00
  YS02001904YS02001907    1.00   0.00  0.06  0.00  0.94  0.00  0.00  0.00  0.00  0.00
  YS02001887YS02001890    1.00   0.00  0.00  0.00  0.99  0.00  0.01  0.00  0.00  0.00
  YS02001652YS02001649    1.00   0.00  0.00  0.00  1.00  0.00  0.00  0.00  0.25  0.00
  YS02001655YS02001652    1.00   0.00  0.00  0.00  0.93  0.00  0.00  0.07  0.02  0.00
  YS02001658YS02001655    1.00   0.00  0.05  0.00  0.92  0.02  0.00  0.00  0.11  0.00
  YS02001661YS02001658    1.00   0.05  0.00  0.00  0.87  0.08  0.00  0.00  0.39  0.00
  YS02001664YS02001661    1.00   0.04  0.00  0.00  0.73  0.23  0.00  0.00  0.86  0.00
  YSB1154YSB6556          1.00   0.04  0.00  0.00  0.96  0.00  0.00  0.00  0.02  0.00
  YSB1174YSB1171          1.00   0.01  0.01  0.00  0.98  0.00  0.00  0.00  0.00  0.00
  YSB1171HS02004479       1.00   0.01  0.00  0.00  0.99  0.00  0.00  0.00  0.13  0.00
  HS02004881HS02006253    1.00   0.01  0.00  0.00  0.75  0.02  0.00  0.22  0.55  0.00
  YS02001793JiankangQianchi    1.00   0.00  0.00  0.00  0.22  0.77  0.00  0.00  0.36  0.00
  YS02001757CaochengTiaoxuchi    1.00   0.00  0.08  0.00  0.92  0.00  0.00  0.00  0.00  0.00
  WSF200WS02003060        1.00   0.00  0.06  0.00  0.69  0.25  0.00  0.00  0.28  0.00
  1                       1.00   0.00  0.00  0.00  0.00  1.00  0.00  0.00  0.41  0.00
  2                       1.00   0.78  0.00  0.00  0.00  0.22  0.00  0.00  0.07  0.00
  3                       1.00   0.25  0.00  0.00  0.00  0.75  0.00  0.00  0.29  0.00
  4                       1.00   1.00  0.00  0.00  0.00  0.00  0.00  0.00  0.00  0.00
  
  
  *************************
  Conduit Surcharge Summary
  *************************
  
  ----------------------------------------------------------------------------
                                                           Hours        Hours 
                         --------- Hours Full --------   Above Full   Capacity
  Conduit                Both Ends  Upstream  Dnstream   Normal Flow   Limited
  ----------------------------------------------------------------------------
  WS02006229WS02006228        1.09      1.35      1.09      3.89         1.09
  WS02006256WS02006235        5.61      5.61      7.08      2.92         0.01
  WS02006252WS02006251        0.58      0.58      1.31      1.12         0.01
  WS02006251WS02006249        0.01      0.01      0.01      0.55         0.01
  WS02006249WS02006248        0.01      0.01      0.01      3.87         0.01
  WS02006247WS02006245        0.01      0.01      0.01      4.40         0.01
  WS02006245WS02006243        0.01      0.01      0.01      0.01         0.01
  WS02006243WS02006242        0.01      0.01      0.32      0.01         0.01
  WS02006242WS02006240        0.01      0.01      0.73      1.36         0.01
  WS02006240WS02006239        0.11      0.11      0.14      0.03         0.01
  WS02006239WS02006238        0.50      0.51      0.73      0.05         0.01
  WS02006238WS02006235        0.47      0.47      1.21      0.01         0.01
  WS02006235WS02006234        0.01      0.01      0.34      5.58         0.01
  WS02006234WS02006232        0.11      0.11      1.40      0.01         0.01
  WS02006232WS02006231        0.01      0.01      1.40      0.01         0.01
  WS02006231WS02006230        0.01      0.01      0.01      5.70         0.01
  WS02006230WS02006229        2.38      3.43      2.38      5.87         2.38
  WS02006228WS02006109        1.21      1.95      1.21      4.70         1.21
  WS02006112WS02006115        0.01      0.01      0.16      0.01         0.01
  WS02006111WS02006112        0.01      0.01      4.03      0.01         0.01
  WS02006110WS02006113        0.01      0.01      1.57      0.01         0.01
  WS02006109WS02006110        0.01      0.01      1.95      0.01         0.01
  WS02004404WS02004405        0.01      0.01      0.01      5.63         0.01
  WS02003072WS02003073        0.01      0.01      0.01      4.71         0.01
  YS02001759YS02001757        5.23      5.23      5.36      0.01         0.01
  YS02001762YS02001759        5.17      5.17      5.23      0.01         0.01
  YS02001765YS02001762        5.06      5.06      5.17      0.01         0.01
  YS02001770YS02001767        4.86      4.87      4.88      0.01         0.32
  YS02001774YS02001770        3.55      3.55      5.14      0.01         0.01
  YS02001779YS02001774        0.01      0.01      5.14      0.01         0.01
  YS02001649YS02001757        5.19      5.19      5.36      0.01         0.01
  YS02001767YS02001765        4.88      4.88      5.06      0.01         0.01
  YS02001629YS02163301        3.35      3.35      3.98      0.01         0.01
  YS02001622YS02001625        0.01      0.01      1.00      0.01         0.01
  YS02001625YS02001629        0.01      0.01      1.00      0.01         0.01
  YS02163301YS02001633        3.98      3.98      5.08      0.01         0.01
  YS02163601YS02164001        5.06      5.06      5.19      0.01         0.01
  YS02164001YS02001641        5.06      5.06      5.12      0.01         0.01
  YS02001641YS02001644        5.11      5.12      5.12      0.01         0.16
  YS02001647YS02001649        0.83      0.83      5.19      0.01         0.01
  YS02001633YS02163601        5.01      5.01      5.19      0.01         0.01
  YS02001644YS02001647        0.83      0.83      5.12      0.01         0.01
  YS02001754YS02001757        0.72      0.72      5.36      0.01         0.01
  YS02001652YS02001649        1.40      1.40      5.19      0.01         0.01
  YS02001655YS02001652        0.01      0.01      0.30      0.01         0.01
  YS02001793JiankangQianchi        0.01      0.01      1.33      0.01         0.01
  YS02001757CaochengTiaoxuchi        0.01      0.01      5.36      0.01         0.01
  
  
  ***************
  Pumping Summary
  ***************
  
  ---------------------------------------------------------------------------------------------------------
                                                  Min       Avg       Max     Total     Power    % Time Off
                        Percent   Number of      Flow      Flow      Flow    Volume     Usage    Pump Curve
  Pump                 Utilized   Start-Ups       LPS       LPS       LPS  10^6 ltr     Kw-hr    Low   High
  ---------------------------------------------------------------------------------------------------------
  CC-Pump-1               62.53           3      0.00    132.52    200.00     2.285      7.12    0.0   16.7
  CC-Pump-2               43.38           5      0.00    136.80    200.00     1.636      5.24    0.0   16.6
  JK-Pump-1               68.08           6      0.00    139.72    300.00     2.086     40.53    0.0    0.0
  JK-Pump-2               74.46           4      0.00    158.63    300.00     2.601     49.30    0.0    0.0
  XR-Pump-1               78.70           7      0.00     69.05     95.00     1.567     15.07    0.0    0.0
  XR-Pump-2               82.96           8      0.00     66.14     95.00     1.596     15.81    0.0    0.0
  XR-Pump-3               87.23           5      0.00     72.16     95.00     1.795     17.40    0.0    0.0
  XR-Pump-4               93.61           5      0.00     67.96     95.00     1.710     16.91    0.0    0.0
  

  Analysis begun on:  Fri Dec 24 16:51:56 2021
  Analysis ended on:  Fri Dec 24 16:51:59 2021
  Total elapsed time: 00:00:03