
  EPA STORM WATER MANAGEMENT MODEL - VERSION 5.1 (Build 5.3.0.dev0)
  --------------------------------------------------------------

  WARNING 04: minimum elevation drop used for Conduit WS02004404WS02004405
  WARNING 03: negative offset ignored for Link YS02001904YS02001907
  
  *********************************************************
  NOTE: The summary statistics displayed in this report are
  based on results found at every computational time step,  
  not just on results from each reporting time step.
  *********************************************************
  
  ****************
  Analysis Options
  ****************
  Flow Units ............... LPS
  Process Models:
    Rainfall/Runoff ........ YES
    RDII ................... NO
    Snowmelt ............... NO
    Groundwater ............ NO
    Flow Routing ........... YES
    Ponding Allowed ........ NO
    Water Quality .......... NO
  Infiltration Method ...... HORTON
  Flow Routing Method ...... DYNWAVE
  Surcharge Method ......... EXTRAN
  Starting Date ............ 08/28/2015 08:00:00
  Ending Date .............. 08/28/2015 15:50:00
  Antecedent Dry Days ...... 8.0
  Report Time Step ......... 00:01:00
  Wet Time Step ............ 00:01:00
  Dry Time Step ............ 00:01:00
  Routing Time Step ........ 5.00 sec
  Variable Time Step ....... YES
  Maximum Trials ........... 8
  Number of Threads ........ 4
  Head Tolerance ........... 0.001500 m
  
  
  **************************        Volume         Depth
  Runoff Quantity Continuity     hectare-m            mm
  **************************     ---------       -------
  Total Precipitation ......         2.737         5.993
  Evaporation Loss .........         0.000         0.000
  Infiltration Loss ........         0.688         1.506
  Surface Runoff ...........         1.163         2.547
  Final Storage ............         0.887         1.941
  Continuity Error (%) .....        -0.018
  
  
  **************************        Volume        Volume
  Flow Routing Continuity        hectare-m      10^6 ltr
  **************************     ---------     ---------
  Dry Weather Inflow .......         0.616         6.165
  Wet Weather Inflow .......         1.163        11.626
  Groundwater Inflow .......         0.000         0.000
  RDII Inflow ..............         0.000         0.000
  External Inflow ..........         0.102         1.024
  External Outflow .........         1.671        16.712
  Flooding Loss ............         0.053         0.528
  Evaporation Loss .........         0.000         0.000
  Exfiltration Loss ........         0.000         0.000
  Initial Stored Volume ....         0.076         0.761
  Final Stored Volume ......         0.328         3.284
  Continuity Error (%) .....        -4.855
  
  
  *************************
  Highest Continuity Errors
  *************************
  Node HS02004842 (28.25%)
  Node JK-storage (-24.86%)
  Node YS02001884 (22.19%)
  Node YS02001774 (10.14%)
  Node YSB1171 (6.84%)
  
  
  ***************************
  Time-Step Critical Elements
  ***************************
  Link WS02006252WS02006251 (58.85%)
  Link 3 (30.07%)
  Link WS02006238WS02006235 (4.68%)
  Link WS02006280WS02006229 (1.81%)
  
  
  ********************************
  Highest Flow Instability Indexes
  ********************************
  Link WS02006113WS02006111 (39)
  Link WS02006111WS02006112 (22)
  Link YS02006558YS02006561 (10)
  Link YS02163301YS02001633 (3)
  Link YS02001655YS02001652 (3)
  
  
  *************************
  Routing Time Step Summary
  *************************
  Minimum Time Step           :     0.10 sec
  Average Time Step           :     0.87 sec
  Maximum Time Step           :     5.00 sec
  Percent in Steady State     :    -0.00
  Average Iterations per Step :     2.04
  Percent Not Converging      :     0.19
  
  
  ***************************
  Subcatchment Runoff Summary
  ***************************
  
  ------------------------------------------------------------------------------------------------------------------------------
                            Total      Total      Total      Total     Imperv       Perv      Total       Total     Peak  Runoff
                           Precip      Runon       Evap      Infil     Runoff     Runoff     Runoff      Runoff   Runoff   Coeff
  Subcatchment                 mm         mm         mm         mm         mm         mm         mm    10^6 ltr      LPS
  ------------------------------------------------------------------------------------------------------------------------------
  sub0                       5.99       0.00       0.00       0.42       4.31       0.00       4.31        0.00     1.60   0.719
  sub1                       5.99       0.00       0.00       0.66       4.08       0.00       4.08        0.03     8.14   0.681
  sub2                       5.99       0.00       0.00       2.22       2.87       0.00       2.87        0.03     7.15   0.479
  sub3                       5.99       0.00       0.00       2.22       2.84       0.00       2.84        0.06    14.58   0.473
  sub4                       5.99       0.00       0.00       0.66       3.94       0.00       3.94        0.08    16.23   0.658
  sub5                       5.99       0.00       0.00       0.42       4.26       0.00       4.26        0.05    14.47   0.711
  sub7                       5.99       0.00       0.00       0.54       4.20       0.00       4.20        0.01     5.17   0.701
  sub8                       5.99       0.00       0.00       0.54       4.19       0.00       4.19        0.03     9.08   0.699
  sub9                       5.99       0.00       0.00       0.54       4.19       0.00       4.19        0.02     6.72   0.699
  sub10                      5.99       0.00       0.00       0.48       4.22       0.00       4.22        0.05    14.48   0.705
  sub11                      5.99       0.00       0.00       0.48       4.24       0.00       4.24        0.05    17.11   0.707
  sub12                      5.99       0.00       0.00       0.78       4.03       0.00       4.03        0.04    14.66   0.672
  sub14                      5.99       0.00       0.00       0.54       4.19       0.00       4.19        0.04    13.13   0.699
  sub15                      5.99       0.00       0.00       1.80       3.22       0.00       3.22        0.06    17.78   0.537
  sub16                      5.99       0.00       0.00       1.98       3.10       0.00       3.10        0.03    12.85   0.517
  sub17                      5.99       0.00       0.00       1.92       3.14       0.00       3.14        0.03    10.35   0.524
  sub22                      5.99       0.00       0.00       2.58       2.63       0.00       2.63        0.17    58.61   0.438
  sub23                      5.99       0.00       0.00       2.22       2.91       0.00       2.91        0.14    49.95   0.485
  sub60                      5.99       0.00       0.00       0.72       2.84       0.00       2.84        0.86    79.26   0.473
  sub61                      5.99       0.00       0.00       1.02       3.03       0.00       3.03        0.94   100.33   0.506
  sub62                      5.99       0.00       0.00       0.48       3.25       0.00       3.25        1.00   102.25   0.543
  sub63                      5.99       0.00       0.00       1.74       2.70       0.00       2.70        0.82    94.01   0.451
  sub64                      5.99       0.00       0.00       0.90       2.71       0.00       2.71        0.82    75.25   0.453
  sub65                      5.99       0.00       0.00       0.78       2.75       0.00       2.75        0.84    76.32   0.458
  sub66                      5.99       0.00       0.00       1.74       2.37       0.00       2.37        0.73    69.14   0.395
  sub67                      5.99       0.00       0.00       0.48       3.57       0.00       3.57        1.10   132.46   0.596
  sub68                      5.99       0.00       0.00       0.84       3.23       0.00       3.23        0.99   111.20   0.538
  sub69                      5.99       0.00       0.00       0.90       3.48       0.00       3.48        0.81   111.68   0.581
  sub70                      5.99       3.55       0.00       3.25       4.28       0.00       4.28        0.98    88.41   0.448
  sub71                      5.99       0.00       0.00       0.48       3.11       0.00       3.11        0.73    71.14   0.519
  sub72                      5.99       0.00       0.00       0.42       2.20       0.00       2.20        0.45    33.50   0.367
  sub73                      5.99       4.16       0.00       3.45       4.36       0.00       4.36        1.02    75.96   0.429
  sub74                      5.99       0.00       0.00       4.49       1.05       0.00       1.05        0.42    62.58   0.175
  
  
  ******************
  Node Depth Summary
  ******************
  
  ---------------------------------------------------------------------------------
                                 Average  Maximum  Maximum  Time of Max    Reported
                                   Depth    Depth      HGL   Occurrence   Max Depth
  Node                 Type       Meters   Meters   Meters  days hr:min      Meters
  ---------------------------------------------------------------------------------
  WS02001211           JUNCTION     0.65     0.77     5.60     0  07:00        0.76
  WS02001212           JUNCTION     0.37     0.47     5.54     0  07:01        0.47
  WS02001213           JUNCTION     0.61     0.71     5.47     0  07:01        0.71
  WS02003069           JUNCTION     0.43     0.53     5.12     0  02:33        0.53
  WS02003072           JUNCTION     0.50     0.60     4.97     0  02:34        0.60
  WS02003073           JUNCTION     0.30     0.36     4.43     0  02:35        0.36
  WS02003060           JUNCTION     0.39     0.47     5.40     0  02:33        0.47
  WS02003066           JUNCTION     0.23     0.30     5.85     0  02:35        0.30
  WS02003059           JUNCTION     0.67     0.76     5.45     0  07:01        0.76
  WS02003067           JUNCTION     0.58     0.70     6.02     0  02:35        0.70
  WS02004401           JUNCTION     0.67     0.85     6.85     0  02:31        0.85
  WS02004402           JUNCTION     0.71     0.88     6.84     0  02:30        0.88
  WS02004403           JUNCTION     0.73     0.89     6.82     0  02:31        0.89
  WS02004404           JUNCTION     0.80     0.96     6.81     0  02:30        0.96
  WS02004406           JUNCTION     0.81     0.96     6.79     0  02:30        0.96
  WS02004409           JUNCTION     0.49     0.66     6.43     0  02:34        0.66
  WS02004410           JUNCTION     0.51     0.68     6.40     0  02:34        0.68
  WS02004411           JUNCTION     0.53     0.69     6.37     0  02:34        0.69
  WS02004412           JUNCTION     0.54     0.69     6.33     0  02:34        0.69
  WS02004413           JUNCTION     0.70     0.85     6.32     0  02:35        0.85
  WS02004405           JUNCTION     0.80     0.96     6.81     0  02:30        0.95
  WS02006109           JUNCTION     0.76     0.98     7.60     0  02:26        0.98
  WS02006110           JUNCTION     0.75     0.93     7.51     0  02:26        0.93
  WS02006111           JUNCTION     0.22     0.29     7.00     0  02:27        0.29
  WS02006112           JUNCTION     0.84     1.05     6.93     0  02:29        1.05
  WS02006113           JUNCTION     0.34     0.46     7.35     0  02:26        0.46
  WS02006115           JUNCTION     0.57     0.75     6.89     0  02:30        0.75
  WS02006116           JUNCTION     0.65     0.83     6.87     0  02:31        0.83
  WS02006230           JUNCTION     0.73     1.03     7.78     0  02:26        1.03
  WS02006231           JUNCTION     0.49     0.70     7.82     0  02:26        0.70
  WS02006232           JUNCTION     0.63     0.83     7.87     0  02:26        0.83
  WS02006234           JUNCTION     0.55     0.76     7.92     0  02:25        0.76
  WS02006235           JUNCTION     0.58     0.79     7.96     0  02:26        0.79
  WS02006238           JUNCTION     0.61     0.82     7.97     0  02:26        0.82
  WS02006240           JUNCTION     0.51     0.73     8.03     0  02:25        0.73
  WS02006242           JUNCTION     0.57     0.80     8.07     0  02:25        0.79
  WS02006243           JUNCTION     0.45     0.68     8.10     0  02:26        0.68
  WS02006245           JUNCTION     0.43     0.64     8.13     0  03:10        0.64
  WS02006247           JUNCTION     0.45     0.65     8.15     0  03:11        0.65
  WS02006248           JUNCTION     0.40     0.59     8.18     0  03:11        0.59
  WS02006249           JUNCTION     0.43     0.61     8.20     0  03:11        0.61
  WS02006239           JUNCTION     0.57     0.79     8.00     0  02:26        0.79
  WS02006251           JUNCTION     0.42     0.64     8.31     0  02:40        0.64
  WS02006252           JUNCTION     0.38     0.59     8.83     0  03:00        0.58
  WS02006253           JUNCTION     0.45     0.67     8.31     0  02:40        0.66
  WS02006256           JUNCTION     1.01     1.20     8.14     0  03:30        1.20
  WS02004138           JUNCTION     0.15     0.19     7.44     0  01:50        0.19
  WS02004407           JUNCTION     0.22     0.30     6.61     0  02:31        0.30
  WS02006228           JUNCTION     0.76     1.02     7.67     0  02:25        1.02
  WS02006229           JUNCTION     0.73     1.02     7.72     0  02:25        1.02
  WS02006280           JUNCTION     0.05     0.15     8.42     0  02:17        0.15
  WS02006284           JUNCTION     0.35     0.49     8.89     0  02:17        0.49
  WS02006287           JUNCTION     0.08     0.22     9.18     0  02:16        0.22
  WSF200               JUNCTION     0.22     0.31     5.54     0  02:35        0.31
  HS02004901           JUNCTION     0.11     0.24    10.06     0  02:14        0.24
  HS02004881           JUNCTION     0.01     0.03     9.05     0  02:16        0.03
  HS02004876           JUNCTION     0.03     0.10     9.13     0  02:14        0.10
  HS02004870           JUNCTION     0.01     0.04     9.33     0  02:17        0.04
  HS02004862           JUNCTION     0.01     0.05     9.43     0  02:17        0.05
  HS02004856           JUNCTION     0.07     0.11     9.53     0  02:17        0.11
  HS02004852           JUNCTION     0.01     0.03     9.54     0  02:18        0.03
  HS02004848           JUNCTION     0.01     0.03     9.63     0  02:16        0.03
  HS02004842           JUNCTION     0.33     0.36     9.63     0  02:16        0.36
  HS02004837           JUNCTION     0.03     0.05     9.63     0  02:16        0.05
  HS02004830           JUNCTION     0.04     0.06     9.53     0  02:16        0.06
  HS02004824           JUNCTION     0.02     0.04     9.44     0  02:19        0.04
  HS02004817           JUNCTION     0.42     0.53     9.38     0  02:17        0.53
  HS02004807           JUNCTION     0.11     0.21     9.38     0  02:17        0.21
  HS02004802           JUNCTION     0.15     0.24     9.37     0  02:17        0.24
  HS02004799           JUNCTION     0.10     0.27     9.48     0  02:15        0.27
  HS02004792           JUNCTION     0.02     0.10     9.63     0  02:14        0.10
  HS02004788           JUNCTION     0.02     0.08     9.98     0  02:15        0.08
  HS02004785           JUNCTION     0.03     0.14    10.04     0  02:15        0.14
  HS02004777           JUNCTION     0.13     0.26    10.06     0  02:15        0.26
  HS02004770           JUNCTION     0.10     0.23    10.06     0  02:14        0.23
  HS02004480           JUNCTION     0.06     0.21     9.45     0  02:16        0.21
  HS02004479           JUNCTION     0.10     0.25     9.45     0  02:15        0.25
  HS02004478           JUNCTION     0.05     0.13     9.36     0  02:16        0.13
  YS02001745           JUNCTION     0.08     0.12     7.64     0  02:56        0.12
  YS02001748           JUNCTION     0.33     0.46     7.53     0  06:04        0.46
  YS02001751           JUNCTION     0.51     0.65     7.53     0  06:05        0.64
  YS02001754           JUNCTION     0.76     0.93     7.54     0  06:03        0.92
  YS02001762           JUNCTION     0.96     1.13     7.53     0  06:04        1.12
  YS02001765           JUNCTION     0.91     1.08     7.53     0  06:04        1.07
  YS02001767           JUNCTION     0.88     1.04     7.53     0  06:04        1.03
  YS02001770           JUNCTION     0.87     1.03     7.53     0  06:04        1.03
  YS02001774           JUNCTION     0.94     1.10     7.53     0  06:04        1.10
  YS02001779           JUNCTION     0.69     0.84     7.53     0  06:04        0.84
  YS02001882           JUNCTION     0.29     0.47     7.18     0  02:43        0.47
  YS02001884           JUNCTION     0.38     0.57     7.18     0  02:48        0.57
  YS02001759           JUNCTION     0.99     1.16     7.53     0  06:04        1.16
  YS02001887           JUNCTION     0.46     0.65     7.18     0  02:48        0.65
  YS02001890           JUNCTION     0.49     0.68     7.18     0  02:47        0.68
  YS02001898           JUNCTION     0.26     0.43     7.17     0  02:51        0.43
  YS02001901           JUNCTION     0.38     0.56     7.17     0  02:46        0.56
  YS02001904           JUNCTION     0.36     0.53     7.16     0  02:49        0.53
  YS02001907           JUNCTION     0.69     0.88     7.16     0  02:50        0.88
  YS02001910           JUNCTION     0.47     0.66     7.16     0  02:50        0.66
  YS02001915           JUNCTION     0.28     0.45     7.16     0  02:49        0.45
  YS02001918           JUNCTION     0.08     0.10     7.16     0  03:03        0.10
  YS02001619           JUNCTION     0.47     0.60     7.53     0  06:05        0.60
  YS02001629           JUNCTION     0.82     0.98     7.53     0  06:04        0.98
  YS02001641           JUNCTION     0.93     1.10     7.54     0  06:05        1.09
  YS02001644           JUNCTION     0.93     1.10     7.53     0  06:05        1.09
  YS02001652           JUNCTION     0.77     0.94     7.54     0  06:04        0.94
  YS02001655           JUNCTION     0.54     0.69     7.54     0  06:04        0.69
  YS02001920           JUNCTION     0.18     0.21     7.22     0  03:02        0.21
  YS02001923           JUNCTION     0.06     0.09     7.35     0  03:01        0.09
  YS02001926           JUNCTION     0.14     0.18     7.62     0  03:01        0.18
  YS02001929           JUNCTION     0.07     0.09     7.78     0  03:01        0.09
  YS02001658           JUNCTION     0.27     0.39     7.53     0  06:05        0.38
  YS02001661           JUNCTION     0.14     0.20     7.61     0  02:41        0.20
  YS02001664           JUNCTION     0.07     0.12     8.04     0  02:41        0.12
  YS02001622           JUNCTION     0.49     0.62     7.53     0  06:05        0.62
  YS02001633           JUNCTION     0.91     1.09     7.54     0  06:05        1.07
  YS02001649           JUNCTION     0.97     1.14     7.53     0  06:05        1.14
  YS02001757           JUNCTION     1.09     1.27     7.53     0  06:04        1.26
  YS02001895           JUNCTION     0.25     0.43     7.17     0  02:47        0.43
  YS02001625           JUNCTION     0.77     0.93     7.53     0  06:04        0.93
  YS02163301           JUNCTION     0.85     1.02     7.53     0  06:05        1.01
  YS02163601           JUNCTION     0.97     1.14     7.54     0  06:05        1.13
  YS02164001           JUNCTION     0.91     1.08     7.54     0  06:05        1.07
  YS02001647           JUNCTION     0.76     0.92     7.53     0  06:06        0.91
  YSB1154              JUNCTION     0.24     0.39     9.45     0  02:16        0.39
  YSB6556              JUNCTION     0.13     0.28     9.45     0  02:15        0.28
  YSB1174              JUNCTION     0.19     0.34     9.45     0  02:16        0.34
  YSB1171              JUNCTION     0.39     0.55     9.45     0  02:15        0.55
  YS02006553           JUNCTION     0.69     0.88     7.16     0  02:50        0.88
  YS02006561           JUNCTION     0.14     0.23     6.89     0  02:48        0.23
  YS02006556           JUNCTION     0.66     0.85     7.16     0  02:48        0.85
  YS02006558           JUNCTION     0.71     0.89     7.16     0  02:48        0.89
  YS02001783           JUNCTION     0.25     0.63     6.77     0  03:04        0.62
  YS02001784           JUNCTION     0.29     0.70     6.77     0  03:04        0.67
  YS02001786           JUNCTION     0.25     0.69     6.72     0  03:04        0.67
  YS02001788           JUNCTION     0.20     0.73     6.70     0  03:04        0.72
  YS02001790           JUNCTION     0.25     1.51     7.16     0  03:01        1.03
  YS02001791           JUNCTION     0.20     1.62     7.09     0  03:00        1.16
  YS02001793           JUNCTION     0.22     3.60     8.43     0  02:57        1.78
  WS02004139           JUNCTION     0.59     0.71     5.62     0  07:00        0.71
  WSC                  OUTFALL      0.30     0.36     1.03     0  02:35        0.36
  3                    OUTFALL      0.07     0.20     6.20     0  03:30        0.20
  4                    OUTFALL      0.02     0.11     7.11     0  03:11        0.11
  5                    OUTFALL      0.00     0.00     5.00     0  00:00        0.00
  JK-storage           STORAGE      1.01     5.80     6.60     0  03:03        5.80
  CC-storage           STORAGE      0.33     0.51     7.51     0  06:03        0.51
  XR-storage           STORAGE      6.77     7.72     5.72     0  03:45        7.72
  
  
  *******************
  Node Inflow Summary
  *******************
  
  -------------------------------------------------------------------------------------------------
                                  Maximum  Maximum                  Lateral       Total        Flow
                                  Lateral    Total  Time of Max      Inflow      Inflow     Balance
                                   Inflow   Inflow   Occurrence      Volume      Volume       Error
  Node                 Type           LPS      LPS  days hr:min    10^6 ltr    10^6 ltr     Percent
  -------------------------------------------------------------------------------------------------
  WS02001211           JUNCTION      7.35   387.63     0  02:00       0.207        6.51       0.479
  WS02001212           JUNCTION      0.00   387.56     0  02:00           0        6.48       0.291
  WS02001213           JUNCTION      0.00   387.54     0  02:00           0        6.46       0.300
  WS02003069           JUNCTION      0.32   810.07     0  02:33     0.00902          14       0.205
  WS02003072           JUNCTION      0.00   809.74     0  02:33           0          14       0.255
  WS02003073           JUNCTION      1.82   811.65     0  02:34      0.0514          14       0.291
  WS02003060           JUNCTION     16.53   809.53     0  02:32       0.466          14       0.193
  WS02003066           JUNCTION      0.00   529.15     0  02:35           0        7.15       0.064
  WS02003059           JUNCTION      0.00   387.45     0  02:00           0        6.44       0.563
  WS02003067           JUNCTION      0.00   529.13     0  02:35           0        7.16       0.134
  WS02004401           JUNCTION      0.00   539.34     0  02:29           0        7.39       0.282
  WS02004402           JUNCTION      0.00   538.55     0  02:30           0        7.37       0.267
  WS02004403           JUNCTION      0.00   537.34     0  02:30           0        7.35       0.244
  WS02004404           JUNCTION      0.16   537.28     0  02:30     0.00457        7.33       0.185
  WS02004406           JUNCTION      0.00   537.02     0  02:30           0         7.3       0.452
  WS02004409           JUNCTION      0.00   536.37     0  02:31           0        7.26       0.227
  WS02004410           JUNCTION      0.00   533.22     0  02:32           0        7.25       0.258
  WS02004411           JUNCTION      0.00   530.72     0  02:33           0        7.23       0.266
  WS02004412           JUNCTION      0.00   529.49     0  02:34           0        7.21       0.288
  WS02004413           JUNCTION      0.00   529.24     0  02:34           0        7.19       0.427
  WS02004405           JUNCTION      0.04   536.82     0  02:31     0.00107        7.32       0.277
  WS02006109           JUNCTION      1.23   548.04     0  02:26      0.0347        7.48       0.229
  WS02006110           JUNCTION      0.00   548.07     0  02:26           0        7.46       0.260
  WS02006111           JUNCTION      0.00   569.52     0  02:26           0        7.43       0.048
  WS02006112           JUNCTION     10.35   559.97     0  02:27      0.0269        7.45       0.386
  WS02006113           JUNCTION      0.00   548.51     0  02:26           0        7.44       0.119
  WS02006115           JUNCTION      0.00   556.76     0  02:27           0        7.43       0.265
  WS02006116           JUNCTION      0.00   544.58     0  02:28           0        7.41       0.236
  WS02006230           JUNCTION     10.28   395.32     0  04:32        0.29        6.56       0.185
  WS02006231           JUNCTION      0.00   386.23     0  04:32           0        6.28       0.135
  WS02006232           JUNCTION      0.00   386.35     0  04:32           0        6.29       0.227
  WS02006234           JUNCTION      0.00   387.71     0  04:32           0         6.3       0.099
  WS02006235           JUNCTION      0.00   387.85     0  04:32           0        6.34       0.155
  WS02006238           JUNCTION      0.00   321.72     0  02:40           0        4.57       0.140
  WS02006240           JUNCTION      0.00   333.04     0  03:01           0        4.55       0.225
  WS02006242           JUNCTION      0.00   340.94     0  03:01           0        4.56       0.292
  WS02006243           JUNCTION      0.00   348.58     0  02:22           0        4.55      -0.061
  WS02006245           JUNCTION      0.00   358.88     0  02:22           0        4.56       0.235
  WS02006247           JUNCTION      0.00   365.54     0  02:21           0        4.56       0.147
  WS02006248           JUNCTION      0.00   372.16     0  02:21           0        4.56       0.060
  WS02006249           JUNCTION      0.00   421.86     0  02:40           0        4.92       0.239
  WS02006239           JUNCTION      0.00   322.47     0  02:40           0        4.56       0.175
  WS02006251           JUNCTION      0.08   423.64     0  02:40     0.00217        4.96       0.178
  WS02006252           JUNCTION      0.00   400.00     0  03:00           0        4.78       0.010
  WS02006253           JUNCTION      1.60    52.89     0  02:19     0.00349       0.187       2.027
  WS02006256           JUNCTION      0.00   599.99     0  03:50           0        4.24       0.054
  WS02004138           JUNCTION      0.00   380.00     0  01:50           0        6.33       0.059
  WS02004407           JUNCTION      0.00   536.62     0  02:31           0        7.27       0.099
  WS02006228           JUNCTION      0.00   546.79     0  02:26           0        7.45       0.172
  WS02006229           JUNCTION      0.00   546.65     0  02:26           0        7.47       0.166
  WS02006280           JUNCTION      0.00   230.87     0  02:17           0       0.922       0.007
  WS02006284           JUNCTION      0.10   230.85     0  02:17      0.0027       0.923       0.114
  WS02006287           JUNCTION      0.00   230.71     0  02:17           0       0.921       0.079
  WSF200               JUNCTION      0.00   529.16     0  02:35           0        7.14       0.065
  HS02004901           JUNCTION     12.85    12.85     0  02:09      0.0324      0.0325       5.705
  HS02004881           JUNCTION      5.17    44.07     0  02:16      0.0141       0.149       0.220
  HS02004876           JUNCTION      8.14    39.26     0  02:16      0.0271       0.135       0.391
  HS02004870           JUNCTION      9.08    31.31     0  02:16      0.0268       0.108       0.098
  HS02004862           JUNCTION      7.35    22.88     0  02:17      0.0324      0.0818       0.207
  HS02004856           JUNCTION      6.72    15.60     0  02:16      0.0201      0.0509       2.911
  HS02004852           JUNCTION      0.00     9.33     0  02:16           0      0.0308       0.164
  HS02004848           JUNCTION     14.58    14.58     0  02:19      0.0638      0.0638       0.068
  HS02004842           JUNCTION      0.00     5.80     0  02:28           0       0.046      39.381
  HS02004837           JUNCTION     20.83    25.68     0  02:15       0.226       0.259       0.314
  HS02004830           JUNCTION      0.15    25.81     0  02:16     0.00423       0.249       0.497
  HS02004824           JUNCTION     16.28    41.90     0  02:19      0.0836       0.331       0.163
  HS02004817           JUNCTION      0.60    42.49     0  02:19      0.0169       0.348       5.033
  HS02004807           JUNCTION     17.11    57.99     0  02:18      0.0492        0.38       1.124
  HS02004802           JUNCTION      0.00    58.34     0  02:19           0       0.376       1.091
  HS02004799           JUNCTION     13.13   147.39     0  02:14      0.0398       0.481       0.474
  HS02004792           JUNCTION     58.89   134.60     0  02:14       0.174       0.441       0.093
  HS02004788           JUNCTION     19.45    78.35     0  02:15       0.102       0.269       0.146
  HS02004785           JUNCTION      0.15    59.36     0  02:14     0.00423       0.168       0.288
  HS02004777           JUNCTION      0.03    59.85     0  02:13    0.000846       0.168       3.169
  HS02004770           JUNCTION     49.95    61.25     0  02:11       0.139       0.169       1.862
  HS02004480           JUNCTION      0.00   173.67     0  02:16           0       0.561       0.131
  HS02004479           JUNCTION      0.00    26.95     0  02:17           0      0.0929       0.791
  HS02004478           JUNCTION      0.00   230.71     0  02:17           0       0.922       0.067
  YS02001745           JUNCTION     79.27    79.27     0  02:56        0.86        0.86       0.101
  YS02001748           JUNCTION      0.04    79.31     0  02:56     0.00127        0.86       0.224
  YS02001751           JUNCTION      0.01   113.27     0  03:15     0.00031       0.859       1.081
  YS02001754           JUNCTION      0.26   101.05     0  03:07     0.00733       0.857       1.928
  YS02001762           JUNCTION      0.00   117.12     0  02:37           0       0.952       2.066
  YS02001765           JUNCTION      0.00   120.82     0  02:43           0       0.952       2.297
  YS02001767           JUNCTION      0.54   126.35     0  02:47      0.0151       0.967       3.235
  YS02001770           JUNCTION    102.41   126.27     0  02:46           1         1.1       2.388
  YS02001774           JUNCTION      0.00    49.70     0  02:15           0       0.217      11.288
  YS02001779           JUNCTION      0.01    47.80     0  03:52    0.000141      0.0976      11.438
  YS02001882           JUNCTION      0.00     4.64     0  02:07           0      0.0056      43.173
  YS02001884           JUNCTION      0.00    13.25     0  02:07           0      0.0221      28.524
  YS02001759           JUNCTION    100.37   215.11     0  02:36       0.936        1.86       1.175
  YS02001887           JUNCTION    132.91   133.61     0  02:43        1.12        1.13       0.642
  YS02001890           JUNCTION      0.00   133.32     0  02:43           0         1.1       0.720
  YS02001898           JUNCTION      0.00   133.58     0  02:44           0        1.09       0.203
  YS02001901           JUNCTION      0.00   134.15     0  02:44           0        1.09       0.512
  YS02001904           JUNCTION      0.00   133.81     0  02:44           0        1.09       0.476
  YS02001907           JUNCTION      0.00   238.00     0  02:48           0        2.33       0.956
  YS02001910           JUNCTION      0.00   109.16     0  02:57           0        1.26       0.818
  YS02001915           JUNCTION     71.16   106.85     0  02:59       0.735        1.26       0.365
  YS02001918           JUNCTION      0.00    36.38     0  03:02           0       0.526       0.219
  YS02001619           JUNCTION     69.14    69.14     0  02:53       0.725       0.725       0.536
  YS02001629           JUNCTION      0.00    97.92     0  03:03           0       0.686       2.007
  YS02001641           JUNCTION      0.00   156.92     0  03:04           0        1.46       1.295
  YS02001644           JUNCTION     75.28   233.00     0  03:04       0.825        2.26       1.028
  YS02001652           JUNCTION      0.00   120.01     0  02:41           0       0.809       2.010
  YS02001655           JUNCTION      0.15   136.73     0  03:07     0.00434       0.823       1.313
  YS02001920           JUNCTION      2.87    36.40     0  03:01      0.0809       0.528       0.393
  YS02001923           JUNCTION      0.04    33.53     0  03:01     0.00106       0.448       0.069
  YS02001926           JUNCTION      0.05    33.54     0  03:01     0.00147       0.449       0.491
  YS02001929           JUNCTION     33.50    33.50     0  03:01       0.448       0.448       0.067
  YS02001658           JUNCTION      0.00    94.01     0  02:41           0        0.82       0.254
  YS02001661           JUNCTION      0.00    94.01     0  02:41           0       0.817       0.082
  YS02001664           JUNCTION     94.01    94.01     0  02:41       0.817       0.817       0.021
  YS02001622           JUNCTION      0.00    84.22     0  03:02           0       0.721       1.656
  YS02001633           JUNCTION     76.52   161.58     0  03:06        0.85        1.51       1.890
  YS02001649           JUNCTION      0.00   327.20     0  03:01           0        2.99       1.133
  YS02001757           JUNCTION      0.00   581.82     0  03:02           0         5.6       1.642
  YS02001895           JUNCTION      0.00   133.38     0  02:43           0        1.09       0.347
  YS02001625           JUNCTION      0.00    89.52     0  03:05           0        0.71       3.915
  YS02163301           JUNCTION      0.00   101.45     0  03:16           0       0.684       2.944
  YS02163601           JUNCTION      0.11   156.86     0  02:46      0.0031        1.48       1.884
  YS02164001           JUNCTION      0.00   155.65     0  02:46           0        1.46       1.201
  YS02001647           JUNCTION      0.00   235.68     0  03:04           0        2.22       0.939
  YSB1154              JUNCTION     14.47    14.47     0  02:13      0.0483      0.0497       2.994
  YSB6556              JUNCTION      0.00    14.37     0  02:15           0      0.0507       2.520
  YSB1174              JUNCTION     14.66    14.66     0  02:08      0.0351      0.0362       3.675
  YSB1171              JUNCTION      0.00    26.92     0  02:15           0      0.0924       7.340
  YS02006553           JUNCTION      0.00   238.12     0  02:57           0        2.32       0.620
  YS02006561           JUNCTION      0.00   355.28     0  02:53           0        3.29       0.020
  YS02006556           JUNCTION      0.00   237.84     0  02:57           0        2.33       0.447
  YS02006558           JUNCTION    112.08   348.43     0  02:47        1.02        3.32       0.137
  YS02001783           JUNCTION      0.00   348.22     0  02:48           0        3.29       0.047
  YS02001784           JUNCTION      1.06   380.14     0  03:04      0.0299        3.32       0.077
  YS02001786           JUNCTION      0.06   372.17     0  03:05     0.00159        3.31       0.076
  YS02001788           JUNCTION      0.07   397.35     0  03:05       0.002        3.31       0.044
  YS02001790           JUNCTION      0.15   379.86     0  03:26     0.00437        3.32       0.042
  YS02001791           JUNCTION      0.00   443.67     0  03:00           0        3.32       0.003
  YS02001793           JUNCTION      0.00   551.38     0  02:57           0        3.32      -0.003
  WS02004139           JUNCTION      0.32   380.37     0  01:50     0.00905        6.33       0.514
  WSC                  OUTFALL       0.00   811.42     0  02:35           0        13.9       0.000
  3                    OUTFALL       0.00   498.38     0  03:30           0        2.44       0.000
  4                    OUTFALL       0.00   113.46     0  03:11           0       0.341       0.000
  5                    OUTFALL       0.00     0.00     0  00:00           0           0       0.000 ltr
  JK-storage           STORAGE       0.00   758.15     0  02:57           0        3.47     -19.909
  CC-storage           STORAGE       0.00   580.82     0  03:01           0        5.51      -0.616
  XR-storage           STORAGE     329.03   329.03     0  02:48        7.08        7.68      -0.001
  
  
  **********************
  Node Surcharge Summary
  **********************
  
  Surcharging occurs when water rises above the top of the highest conduit.
  ---------------------------------------------------------------------
                                               Max. Height   Min. Depth
                                   Hours       Above Crown    Below Rim
  Node                 Type      Surcharged         Meters       Meters
  ---------------------------------------------------------------------
  WS02006109           JUNCTION        1.48          0.162        1.658
  WS02006110           JUNCTION        0.13          0.019        1.831
  WS02006112           JUNCTION        0.36          0.047        1.633
  WS02006232           JUNCTION        1.94          0.129        1.351
  WS02006234           JUNCTION        0.12          0.045        1.195
  WS02006235           JUNCTION        0.94          0.084        1.206
  WS02006238           JUNCTION        1.28          0.102        1.328
  WS02006240           JUNCTION        0.07          0.024        1.366
  WS02006242           JUNCTION        0.90          0.067        0.753
  WS02006239           JUNCTION        0.52          0.050        1.240
  WS02006252           JUNCTION        2.46          0.186        0.914
  WS02006228           JUNCTION        1.34          0.193        2.007
  YS02001762           JUNCTION        4.54          0.128        1.022
  YS02001765           JUNCTION        3.38          0.078        1.022
  YS02001767           JUNCTION        1.06          0.039        0.991
  YS02001770           JUNCTION        0.01          0.001        0.919
  YS02001774           JUNCTION        4.40          0.103        0.947
  YS02001759           JUNCTION        4.77          0.164        1.046
  YS02001641           JUNCTION        4.15          0.102        0.998
  YS02001644           JUNCTION        4.31          0.101        0.819
  YS02001633           JUNCTION        2.14          0.066        0.994
  YS02001649           JUNCTION        4.59          0.137        0.913
  YS02001757           JUNCTION        5.38          0.267        0.943
  YS02163301           JUNCTION        0.14          0.017        1.013
  YS02163601           JUNCTION        4.57          0.144        0.936
  YS02164001           JUNCTION        3.31          0.084        1.016
  YS02001790           JUNCTION        0.39          0.714        0.443
  YS02001791           JUNCTION        0.44          0.821        1.099
  YS02001793           JUNCTION        0.51          2.600        0.000
  
  
  *********************
  Node Flooding Summary
  *********************
  
  Flooding refers to all water that overflows a node, whether it ponds or not.
  --------------------------------------------------------------------------
                                                             Total   Maximum
                                 Maximum   Time of Max       Flood    Ponded
                        Hours       Rate    Occurrence      Volume     Depth
  Node                 Flooded       LPS   days hr:min    10^6 ltr    Meters
  --------------------------------------------------------------------------
  YS02001793              0.01    353.99      0  02:57       0.000     0.000
  JK-storage              0.26    225.97      0  03:05       0.061     0.000
  XR-storage              1.52    193.42      0  03:50       0.467     0.000
  
  
  **********************
  Storage Volume Summary
  **********************
  
  --------------------------------------------------------------------------------------------------
                         Average     Avg  Evap Exfil       Maximum     Max    Time of Max    Maximum
                          Volume    Pcnt  Pcnt  Pcnt        Volume    Pcnt     Occurrence    Outflow
  Storage Unit           1000 m3    Full  Loss  Loss       1000 m3    Full    days hr:min        LPS
  --------------------------------------------------------------------------------------------------
  JK-storage               0.051      17     0     0         0.291     100       0  03:03     599.99
  CC-storage               0.915       6     0     0         1.432       9       0  06:03     400.00
  XR-storage               0.812      88     0     0         0.926     100       0  03:45     380.00
  
  
  ***********************
  Outfall Loading Summary
  ***********************
  
  -----------------------------------------------------------
                         Flow       Avg       Max       Total
                         Freq      Flow      Flow      Volume
  Outfall Node           Pcnt       LPS       LPS    10^6 ltr
  -----------------------------------------------------------
  WSC                  100.00    570.23    811.42      13.934
  3                     78.64    156.78    498.38       2.437
  4                     39.10     39.32    113.46       0.341
  5                      0.00      0.00      0.00       0.000
  -----------------------------------------------------------
  System                54.43    766.33   1197.17      16.712
  
  
  ********************
  Link Flow Summary
  ********************
  
  -----------------------------------------------------------------------------
                                 Maximum  Time of Max   Maximum    Max/    Max/
                                  |Flow|   Occurrence   |Veloc|    Full    Full
  Link                 Type          LPS  days hr:min     m/sec    Flow   Depth
  -----------------------------------------------------------------------------
  WS02003066WSF200     CONDUIT    529.16     0  02:35      2.75    0.09    0.23
  WS02006287WS02006284 CONDUIT    230.76     0  02:17      1.68    0.11    0.23
  WS02006284WS02006280 CONDUIT    230.87     0  02:17      1.93    0.10    0.21
  WS02006280WS02006229 CONDUIT    230.87     0  02:17      3.10    0.05    0.15
  WS02006229WS02006228 CONDUIT    546.79     0  02:26      1.09    1.81    1.00
  WS02006256WS02006235 CONDUIT    154.44     0  02:13      2.22    1.63    1.00
  WS02006253WS02006251 CONDUIT     46.94     0  02:22      0.51    0.14    0.92
  WS02006252WS02006251 CONDUIT    400.56     0  03:00      3.19    1.47    1.00
  WS02006251WS02006249 CONDUIT    421.86     0  02:40      1.21    1.22    0.89
  WS02006249WS02006248 CONDUIT    372.16     0  02:21      1.25    2.04    0.84
  WS02006248WS02006247 CONDUIT    365.54     0  02:21      1.21    0.80    0.88
  WS02006247WS02006245 CONDUIT    358.88     0  02:22      1.18    2.85    0.92
  WS02006245WS02006243 CONDUIT    348.58     0  02:22      1.22    1.03    0.93
  WS02006243WS02006242 CONDUIT    340.94     0  03:01      1.03    0.73    0.98
  WS02006242WS02006240 CONDUIT    333.04     0  03:01      0.93    1.32    1.00
  WS02006240WS02006239 CONDUIT    322.47     0  02:40      0.97    1.01    1.00
  WS02006239WS02006238 CONDUIT    321.72     0  02:40      0.88    1.03    1.00
  WS02006238WS02006235 CONDUIT    322.15     0  02:40      0.85    0.72    1.00
  WS02006235WS02006234 CONDUIT    387.71     0  04:32      1.04    4.09    1.00
  WS02006234WS02006232 CONDUIT    386.35     0  04:32      1.01    0.78    1.00
  WS02006232WS02006231 CONDUIT    386.23     0  04:32      1.05    0.81    0.99
  WS02006231WS02006230 CONDUIT    385.04     0  04:32      1.36    5.84    0.96
  WS02006230WS02006229 CONDUIT    394.77     0  04:33      1.03    8.79    1.00
  WS02006228WS02006109 CONDUIT    546.81     0  02:26      1.09    2.39    1.00
  WS02006116WS02004401 CONDUIT    539.34     0  02:29      0.80    0.74    0.84
  WS02006115WS02006116 CONDUIT    544.58     0  02:28      0.90    0.70    0.76
  WS02006113WS02006111 CONDUIT    569.52     0  02:26      2.48    0.68    0.47
  WS02006112WS02006115 CONDUIT    556.76     0  02:27      0.78    0.33    0.87
  WS02006111WS02006112 CONDUIT    553.54     0  02:27      1.53    0.26    0.68
  WS02006110WS02006113 CONDUIT    548.51     0  02:26      1.29    0.50    0.79
  WS02006109WS02006110 CONDUIT    548.07     0  02:26      1.09    1.05    1.00
  WS02004411WS02004412 CONDUIT    529.49     0  02:34      0.92    0.75    0.69
  WS02004401WS02004402 CONDUIT    538.55     0  02:30      0.83    0.65    0.86
  WS02004413WS02003067 CONDUIT    529.13     0  02:35      1.10    0.23    0.59
  WS02004412WS02004413 CONDUIT    529.24     0  02:34      0.81    0.35    0.77
  WS02004410WS02004411 CONDUIT    530.72     0  02:33      0.94    0.72    0.68
  WS02004409WS02004410 CONDUIT    533.22     0  02:32      0.98    0.69    0.67
  WS02004407WS02004409 CONDUIT    536.37     0  02:31      1.49    0.19    0.48
  WS02004406WS02004407 CONDUIT    536.62     0  02:31      1.04    0.24    0.63
  WS02004405WS02004406 CONDUIT    537.02     0  02:30      0.75    1.06    0.96
  WS02004404WS02004405 CONDUIT    536.78     0  02:31      0.96    5.26    0.96
  WS02004403WS02004404 CONDUIT    537.12     0  02:30      0.84    0.39    0.93
  WS02004402WS02004403 CONDUIT    537.34     0  02:30      0.85    0.77    0.88
  WS02004139WS02001211 CONDUIT    380.28     0  02:00      0.69    0.48    0.57
  WS02004138WS02004139 CONDUIT    380.05     0  01:50      2.95    0.08    0.43
  WS02003067WS02003066 CONDUIT    529.15     0  02:35      1.20    0.17    0.41
  WS02001213WS02003059 CONDUIT    387.45     0  02:00      0.68    0.64    0.73
  WS02001212WS02001213 CONDUIT    387.54     0  02:00      1.32    0.60    0.43
  WS02001211WS02001212 CONDUIT    387.56     0  02:00      0.78    0.30    0.62
  WS02003072WS02003073 CONDUIT    809.83     0  02:34      1.64    1.75    0.45
  WS02003069WS02003072 CONDUIT    809.74     0  02:33      1.55    0.39    0.47
  WS02003060WS02003069 CONDUIT    809.75     0  02:33      1.80    0.32    0.42
  WS02003059WS02003060 CONDUIT    387.31     0  02:01      0.93    0.25    0.61
  HS02004901HS02004770 CONDUIT     11.74     0  02:14      0.05    0.04    0.33
  HS02004876HS02004881 CONDUIT     39.35     0  02:16      0.61    0.42    0.09
  HS02004870HS02004876 CONDUIT     31.28     0  02:17      0.43    0.02    0.10
  HS02004842HS02004848 CONDUIT      5.80     0  02:28      0.03    0.00    0.28
  HS02004837HS02004842 CONDUIT      6.02     0  02:29      0.42    0.00    0.29
  HS02004830HS02004837 CONDUIT     25.66     0  02:16      0.46    0.03    0.08
  HS02004824HS02004830 CONDUIT     25.81     0  02:17      0.50    0.03    0.07
  HS02004817HS02004824 CONDUIT     41.89     0  02:19      0.17    0.02    0.41
  HS02004770HS02004777 CONDUIT     59.82     0  02:13      0.25    0.11    0.35
  HS02004799HS02004480 CONDUIT    147.14     0  02:15      0.63    0.19    0.33
  HS02004792HS02004799 CONDUIT    134.51     0  02:14      0.73    0.08    0.27
  HS02004788HS02004792 CONDUIT     78.26     0  02:15      0.87    0.05    0.13
  HS02004785HS02004788 CONDUIT     59.25     0  02:15      0.55    0.45    0.16
  HS02004777HS02004785 CONDUIT     59.21     0  02:14      0.30    0.07    0.28
  HS02004480HS02004478 CONDUIT    173.62     0  02:16      1.01    0.73    0.25
  HS02004479HS02004480 CONDUIT     27.20     0  02:17      0.15    0.03    0.32
  HS02004862HS02004870 CONDUIT     22.83     0  02:17      0.49    0.02    0.07
  HS02004848HS02004852 CONDUIT      9.33     0  02:16      0.33    0.01    0.04
  HS02004856HS02004862 CONDUIT     15.56     0  02:17      0.36    0.02    0.06
  HS02004852HS02004856 CONDUIT      9.28     0  02:18      0.14    0.01    0.10
  HS02004802HS02004478 CONDUIT     58.82     0  02:20      0.32    0.05    0.27
  HS02004478WS02006287 CONDUIT    230.71     0  02:17      1.38    0.06    0.19
  HS02004817HS02004807 CONDUIT     43.15     0  02:21      0.12    0.03    0.53
  HS02004807HS02004802 CONDUIT     58.34     0  02:19      0.27    0.11    0.32
  YS02001759YS02001757 CONDUIT    218.30     0  02:36      0.28    0.16    1.00
  YS02001762YS02001759 CONDUIT    115.98     0  02:36      0.17    0.13    1.00
  YS02001765YS02001762 CONDUIT    117.12     0  02:37      0.23    0.11    1.00
  YS02001770YS02001767 CONDUIT    125.82     0  02:47      0.35    0.50    1.00
  YS02001774YS02001770 CONDUIT     49.70     0  02:15      0.14    0.03    1.00
  YS02001779YS02001774 CONDUIT     47.80     0  03:52      0.09    0.02    0.92
  YS02001649YS02001757 CONDUIT    328.36     0  03:02      0.42    0.20    1.00
  YS02001767YS02001765 CONDUIT    120.82     0  02:43      0.26    0.15    1.00
  YS02006561YS02001783 CONDUIT    348.22     0  02:48      1.84    0.18    0.53
  YS02001783YS02001784 CONDUIT    379.08     0  03:04      1.28    0.52    0.81
  YS02001784YS02001785 CONDUIT    372.12     0  03:05      1.36    0.87    0.87
  YS02001788YS02001790 CONDUIT    379.71     0  03:26      1.93    0.28    0.95
  YS02001790YS02001791 CONDUIT    443.67     0  03:00      2.27    0.48    1.00
  YS02001791YS02001793 CONDUIT    525.38     0  02:58      4.53    0.23    1.00
  YS02001910YS02001907 CONDUIT    109.03     0  02:57      0.49    0.06    0.76
  YS02001786YS02001788 CONDUIT    397.28     0  03:05      1.82    0.77    0.87
  YS02001915YS02001910 CONDUIT    109.16     0  02:57      0.44    0.05    0.55
  YS02001918YS02001915 CONDUIT     36.36     0  03:03      0.44    0.02    0.27
  YS02001923YS02001920 CONDUIT     33.53     0  03:01      0.47    0.02    0.15
  YS02001926YS02001923 CONDUIT     33.49     0  03:01      0.51    0.05    0.14
  YS02001929YS02001926 CONDUIT     33.49     0  03:01      0.54    0.02    0.13
  YS02001920YS02001918 CONDUIT     36.38     0  03:02      0.48    0.04    0.15
  YS02001629YS02163301 CONDUIT    101.45     0  03:16      0.13    0.12    0.99
  YS02001619YS02001622 CONDUIT     84.22     0  03:02      0.69    0.12    0.61
  YS02001622YS02001625 CONDUIT     89.52     0  03:05      0.27    0.05    0.78
  YS02001625YS02001629 CONDUIT     97.92     0  03:03      0.27    0.05    0.76
  YS02163301YS02001633 CONDUIT     88.70     0  03:11      0.11    0.08    1.00
  YS02163601YS02164001 CONDUIT    155.65     0  02:46      0.20    0.14    1.00
  YS02164001YS02001641 CONDUIT    156.92     0  03:04      0.20    0.21    1.00
  YS02001641YS02001644 CONDUIT    160.44     0  03:11      0.20    0.52    1.00
  YS02001647YS02001649 CONDUIT    249.39     0  03:01      0.33    0.13    0.96
  YS02006553YS02006556 CONDUIT    237.84     0  02:57      0.34    0.20    0.84
  YS02006556YS02006558 CONDUIT    238.35     0  02:56      0.33    0.19    0.87
  YSB6556YSB1171       CONDUIT     14.70     0  02:18      0.06    0.02    0.59
  YS02001907YS02006553 CONDUIT    238.12     0  02:57      0.28    0.28    0.96
  YS02006558YS02006561 CONDUIT    355.28     0  02:53      2.41    0.79    0.52
  YS02001633YS02163601 CONDUIT    156.75     0  02:46      0.20    0.16    1.00
  YS02001644YS02001647 CONDUIT    235.68     0  03:04      0.31    0.14    0.96
  YS02001745YS02001748 CONDUIT     79.27     0  02:56      1.43    0.03    0.23
  YS02001748YS02001751 CONDUIT    113.26     0  03:15      1.12    0.06    0.55
  YS02001751YS02001754 CONDUIT    100.79     0  03:07      1.00    0.05    0.76
  YS02001754YS02001757 CONDUIT    107.10     0  03:15      0.33    0.04    0.96
  YS02001882YS02001884 CONDUIT      4.64     0  02:07      0.06    0.01    0.49
  YS02001884YS02001887 CONDUIT     13.25     0  02:07      0.07    0.02    0.58
  YS02001890YS02001895 CONDUIT    133.38     0  02:43      0.30    0.06    0.55
  YS02001895YS02001898 CONDUIT    133.58     0  02:44      0.51    0.23    0.41
  YS02001898YS02001901 CONDUIT    134.15     0  02:44      0.35    0.09    0.49
  YS02001901YS02001904 CONDUIT    133.81     0  02:44      0.31    0.21    0.54
  YS02001904YS02001907 CONDUIT    133.26     0  02:43      0.23    0.05    0.70
  YS02001887YS02001890 CONDUIT    133.32     0  02:43      0.25    0.23    0.64
  YS02001652YS02001649 CONDUIT    131.42     0  03:10      0.35    0.07    0.97
  YS02001655YS02001652 CONDUIT    120.01     0  02:41      1.08    0.06    0.80
  YS02001658YS02001655 CONDUIT    136.57     0  03:07      1.29    0.06    0.53
  YS02001661YS02001658 CONDUIT     94.01     0  02:41      1.49    0.04    0.25
  YS02001664YS02001661 CONDUIT     94.01     0  02:41      1.16    0.03    0.16
  YSB1154YSB6556       CONDUIT     14.37     0  02:15      0.19    0.03    0.48
  YSB1174YSB1171       CONDUIT     13.48     0  02:11      0.06    0.02    0.60
  YSB1171HS02004479    CONDUIT     26.95     0  02:17      0.54    0.02    0.46
  HS02004881HS02006253 CONDUIT     44.06     0  02:16      1.75    0.01    0.25
  YS02001793JiankangQianchi CONDUIT    758.15     0  02:57     13.08    0.06    1.00
  YS02001757CaochengTiaoxuchi CONDUIT    580.82     0  03:01      1.32    0.26    0.76
  WSF200WS02003060     CONDUIT    530.12     0  02:35      1.83    0.12    0.32
  1                    CONDUIT    811.42     0  02:35      3.14    0.28    0.36
  2                    CONDUIT    113.46     0  03:11      5.02    0.27    0.36
  3                    CONDUIT    498.38     0  03:30      9.79    0.79    0.68
  4                    CONDUIT      0.00     0  00:00      0.00    0.00    0.00
  CC-Pump-1            PUMP       200.00     0  02:20              1.00
  CC-Pump-2            PUMP       200.00     0  03:00              1.00
  JK-Pump-1            PUMP       300.00     0  03:20              1.00
  JK-Pump-2            PUMP       300.00     0  00:20              1.00
  XR-Pump-1            PUMP        95.00     0  00:20              1.00
  XR-Pump-2            PUMP        95.00     0  00:00              1.00
  XR-Pump-3            PUMP        95.00     0  00:00              1.00
  XR-Pump-4            PUMP        95.00     0  00:50              1.00
  
  
  ***************************
  Flow Classification Summary
  ***************************
  
  -------------------------------------------------------------------------------------
                      Adjusted    ---------- Fraction of Time in Flow Class ---------- 
                       /Actual         Up    Down  Sub   Sup   Up    Down  Norm  Inlet 
  Conduit               Length    Dry  Dry   Dry   Crit  Crit  Crit  Crit  Ltd   Ctrl  
  -------------------------------------------------------------------------------------
  WS02003066WSF200        1.00   0.05  0.00  0.00  0.00  0.95  0.00  0.00  0.75  0.00
  WS02006287WS02006284    1.00   0.04  0.01  0.00  0.70  0.25  0.00  0.00  0.77  0.00
  WS02006284WS02006280    1.00   0.04  0.00  0.00  0.00  0.00  0.00  0.96  0.00  0.00
  WS02006280WS02006229    1.00   0.04  0.00  0.00  0.00  0.00  0.00  0.96  0.00  0.00
  WS02006229WS02006228    1.00   0.00  0.00  0.00  1.00  0.00  0.00  0.00  0.00  0.00
  WS02006256WS02006235    1.00   0.00  0.00  0.00  1.00  0.00  0.00  0.00  0.00  0.00
  WS02006253WS02006251    1.00   0.03  0.01  0.00  0.96  0.00  0.00  0.00  0.00  0.00
  WS02006252WS02006251    1.00   0.08  0.00  0.00  0.00  0.00  0.92  0.00  0.00  0.00
  WS02006251WS02006249    1.00   0.00  0.00  0.00  1.00  0.00  0.00  0.00  0.27  0.00
  WS02006249WS02006248    1.00   0.00  0.00  0.00  0.90  0.00  0.09  0.00  0.00  0.00
  WS02006248WS02006247    1.00   0.00  0.00  0.00  0.97  0.00  0.00  0.02  0.17  0.00
  WS02006247WS02006245    1.00   0.00  0.00  0.00  0.98  0.00  0.00  0.01  0.00  0.00
  WS02006245WS02006243    1.00   0.01  0.00  0.00  0.95  0.00  0.00  0.04  0.01  0.00
  WS02006243WS02006242    1.00   0.01  0.00  0.00  0.99  0.00  0.00  0.00  0.23  0.00
  WS02006242WS02006240    1.00   0.01  0.00  0.00  0.99  0.00  0.00  0.00  0.00  0.00
  WS02006240WS02006239    1.00   0.00  0.00  0.00  0.96  0.00  0.00  0.04  0.01  0.00
  WS02006239WS02006238    1.00   0.00  0.00  0.00  1.00  0.00  0.00  0.00  0.03  0.00
  WS02006238WS02006235    1.00   0.00  0.00  0.00  1.00  0.00  0.00  0.00  0.00  0.00
  WS02006235WS02006234    1.00   0.00  0.00  0.00  0.96  0.00  0.04  0.00  0.00  0.00
  WS02006234WS02006232    1.00   0.00  0.00  0.00  1.00  0.00  0.00  0.00  0.06  0.00
  WS02006232WS02006231    1.00   0.00  0.00  0.00  0.99  0.00  0.00  0.00  0.00  0.00
  WS02006231WS02006230    1.00   0.01  0.00  0.00  0.69  0.00  0.30  0.00  0.00  0.00
  WS02006230WS02006229    1.00   0.00  0.00  0.00  0.99  0.00  0.00  0.01  0.01  0.00
  WS02006228WS02006109    1.00   0.00  0.00  0.00  1.00  0.00  0.00  0.00  0.00  0.00
  WS02006116WS02004401    1.00   0.03  0.00  0.00  0.97  0.00  0.00  0.00  0.00  0.00
  WS02006115WS02006116    1.00   0.03  0.00  0.00  0.97  0.00  0.00  0.00  0.00  0.00
  WS02006113WS02006111    1.00   0.01  0.00  0.00  0.00  0.99  0.00  0.00  0.11  0.00
  WS02006112WS02006115    1.00   0.02  0.01  0.00  0.97  0.00  0.00  0.00  0.00  0.00
  WS02006111WS02006112    1.00   0.02  0.00  0.00  0.98  0.00  0.00  0.00  0.95  0.00
  WS02006110WS02006113    1.00   0.00  0.01  0.00  0.99  0.00  0.00  0.00  0.00  0.00
  WS02006109WS02006110    1.00   0.00  0.00  0.00  1.00  0.00  0.00  0.00  0.00  0.00
  WS02004411WS02004412    1.00   0.04  0.00  0.00  0.96  0.00  0.00  0.00  0.00  0.00
  WS02004401WS02004402    1.00   0.03  0.00  0.00  0.97  0.00  0.00  0.00  0.00  0.00
  WS02004413WS02003067    1.00   0.04  0.01  0.00  0.00  0.00  0.95  0.00  0.00  0.00
  WS02004412WS02004413    1.00   0.04  0.00  0.00  0.96  0.00  0.00  0.00  0.02  0.00
  WS02004410WS02004411    1.00   0.04  0.00  0.00  0.96  0.00  0.00  0.00  0.02  0.00
  WS02004409WS02004410    1.00   0.03  0.00  0.00  0.97  0.00  0.00  0.00  0.04  0.00
  WS02004407WS02004409    1.00   0.03  0.00  0.00  0.96  0.00  0.00  0.00  0.90  0.00
  WS02004406WS02004407    1.00   0.00  0.03  0.00  0.97  0.00  0.00  0.00  0.00  0.00
  WS02004405WS02004406    1.00   0.00  0.00  0.00  1.00  0.00  0.00  0.00  0.03  0.00
  WS02004404WS02004405    1.00   0.00  0.00  0.00  1.00  0.00  0.00  0.00  0.00  0.00
  WS02004403WS02004404    1.00   0.00  0.03  0.00  0.97  0.00  0.00  0.00  0.00  0.00
  WS02004402WS02004403    1.00   0.03  0.00  0.00  0.97  0.00  0.00  0.00  0.00  0.00
  WS02004139WS02001211    1.00   0.00  0.00  0.00  1.00  0.00  0.00  0.00  0.00  0.00
  WS02004138WS02004139    1.00   0.00  0.00  0.00  1.00  0.00  0.00  0.00  1.00  0.00
  WS02003067WS02003066    1.00   0.05  0.00  0.00  0.95  0.00  0.00  0.00  0.00  0.00
  WS02001213WS02003059    1.00   0.00  0.00  0.00  1.00  0.00  0.00  0.00  0.00  0.00
  WS02001212WS02001213    1.00   0.00  0.00  0.00  0.84  0.00  0.16  0.00  0.00  0.00
  WS02001211WS02001212    1.00   0.00  0.00  0.00  1.00  0.00  0.00  0.00  0.00  0.00
  WS02003072WS02003073    1.00   0.00  0.00  0.00  0.00  0.00  0.00  1.00  0.00  0.00
  WS02003069WS02003072    1.00   0.00  0.00  0.00  1.00  0.00  0.00  0.00  0.25  0.00
  WS02003060WS02003069    1.00   0.00  0.00  0.00  1.00  0.00  0.00  0.00  0.15  0.00
  WS02003059WS02003060    1.00   0.00  0.00  0.00  1.00  0.00  0.00  0.00  0.01  0.00
  HS02004901HS02004770    1.00   0.04  0.00  0.00  0.96  0.00  0.00  0.00  0.03  0.00
  HS02004876HS02004881    1.00   0.00  0.00  0.00  1.00  0.00  0.00  0.00  0.00  0.00
  HS02004870HS02004876    1.00   0.00  0.00  0.00  1.00  0.00  0.00  0.00  0.95  0.00
  HS02004842HS02004848    1.00   0.00  0.04  0.00  0.96  0.00  0.00  0.00  0.69  0.00
  HS02004837HS02004842    1.00   0.00  0.00  0.00  1.00  0.00  0.00  0.00  0.11  0.00
  HS02004830HS02004837    1.00   0.00  0.00  0.00  1.00  0.00  0.00  0.00  0.99  0.00
  HS02004824HS02004830    1.00   0.00  0.00  0.00  1.00  0.00  0.00  0.00  0.00  0.00
  HS02004817HS02004824    1.00   0.00  0.00  0.00  1.00  0.00  0.00  0.00  1.00  0.00
  HS02004770HS02004777    1.00   0.00  0.04  0.00  0.96  0.00  0.00  0.00  0.07  0.00
  HS02004799HS02004480    1.00   0.00  0.01  0.00  0.94  0.00  0.05  0.00  0.00  0.00
  HS02004792HS02004799    1.00   0.00  0.00  0.00  1.00  0.00  0.00  0.00  0.98  0.00
  HS02004788HS02004792    1.00   0.00  0.00  0.00  1.00  0.00  0.00  0.00  0.98  0.00
  HS02004785HS02004788    1.00   0.00  0.00  0.00  1.00  0.00  0.00  0.00  0.00  0.00
  HS02004777HS02004785    1.00   0.00  0.00  0.00  1.00  0.00  0.00  0.00  0.21  0.00
  HS02004480HS02004478    1.00   0.05  0.00  0.00  0.74  0.00  0.00  0.21  0.00  0.00
  HS02004479HS02004480    1.00   0.01  0.00  0.00  0.99  0.00  0.00  0.00  0.16  0.00
  HS02004862HS02004870    1.00   0.00  0.00  0.00  1.00  0.00  0.00  0.00  0.05  0.00
  HS02004848HS02004852    1.00   0.04  0.00  0.00  0.96  0.00  0.00  0.00  0.71  0.00
  HS02004856HS02004862    1.00   0.00  0.07  0.00  0.93  0.00  0.00  0.00  0.74  0.00
  HS02004852HS02004856    1.00   0.04  0.01  0.00  0.95  0.00  0.00  0.00  0.83  0.00
  HS02004802HS02004478    1.00   0.04  0.01  0.00  0.95  0.00  0.00  0.00  0.01  0.00
  HS02004478WS02006287    1.00   0.05  0.00  0.00  0.86  0.09  0.00  0.00  0.76  0.00
  HS02004817HS02004807    1.00   0.00  0.04  0.00  0.96  0.00  0.00  0.00  0.00  0.00
  HS02004807HS02004802    1.00   0.04  0.00  0.00  0.95  0.00  0.00  0.00  0.01  0.00
  YS02001759YS02001757    1.00   0.00  0.00  0.00  1.00  0.00  0.00  0.00  0.17  0.00
  YS02001762YS02001759    1.00   0.00  0.00  0.00  1.00  0.00  0.00  0.00  0.05  0.00
  YS02001765YS02001762    1.00   0.00  0.00  0.00  1.00  0.00  0.00  0.00  0.22  0.00
  YS02001770YS02001767    1.00   0.00  0.00  0.00  1.00  0.00  0.00  0.00  0.00  0.00
  YS02001774YS02001770    1.00   0.00  0.05  0.00  0.95  0.00  0.00  0.00  0.06  0.00
  YS02001779YS02001774    1.00   0.00  0.00  0.00  1.00  0.00  0.00  0.00  0.26  0.00
  YS02001649YS02001757    1.00   0.00  0.00  0.00  1.00  0.00  0.00  0.00  0.19  0.00
  YS02001767YS02001765    1.00   0.00  0.00  0.00  1.00  0.00  0.00  0.00  0.01  0.00
  YS02006561YS02001783    1.00   0.07  0.00  0.00  0.06  0.87  0.00  0.00  0.73  0.00
  YS02001783YS02001784    1.00   0.00  0.07  0.00  0.93  0.00  0.00  0.00  0.00  0.00
  YS02001784YS02001785    1.00   0.00  0.00  0.00  1.00  0.00  0.00  0.00  0.25  0.00
  YS02001788YS02001790    1.00   0.00  0.00  0.00  0.15  0.85  0.00  0.00  0.76  0.00
  YS02001790YS02001791    1.00   0.00  0.00  0.00  0.08  0.92  0.00  0.00  0.49  0.00
  YS02001791YS02001793    1.00   0.00  0.00  0.00  0.10  0.90  0.00  0.00  0.01  0.00
  YS02001910YS02001907    1.00   0.00  0.00  0.00  0.99  0.00  0.00  0.00  0.13  0.00
  YS02001786YS02001788    1.00   0.00  0.00  0.00  0.14  0.86  0.00  0.00  0.00  0.00
  YS02001915YS02001910    1.00   0.00  0.00  0.00  1.00  0.00  0.00  0.00  0.24  0.00
  YS02001918YS02001915    1.00   0.00  0.00  0.00  1.00  0.00  0.00  0.00  0.81  0.00
  YS02001923YS02001920    1.00   0.00  0.00  0.00  1.00  0.00  0.00  0.00  1.00  0.00
  YS02001926YS02001923    1.00   0.00  0.03  0.00  0.00  0.00  0.97  0.00  0.00  0.00
  YS02001929YS02001926    1.00   0.00  0.04  0.00  0.96  0.00  0.00  0.00  0.87  0.00
  YS02001920YS02001918    1.00   0.00  0.00  0.00  1.00  0.00  0.00  0.00  0.00  0.00
  YS02001629YS02163301    1.00   0.06  0.00  0.00  0.94  0.00  0.00  0.00  0.00  0.00
  YS02001619YS02001622    1.00   0.04  0.00  0.00  0.96  0.00  0.00  0.00  0.00  0.00
  YS02001622YS02001625    1.00   0.04  0.00  0.00  0.96  0.00  0.00  0.00  0.13  0.00
  YS02001625YS02001629    1.00   0.04  0.02  0.00  0.92  0.00  0.02  0.00  0.00  0.00
  YS02163301YS02001633    1.00   0.00  0.06  0.00  0.94  0.00  0.00  0.00  0.00  0.00
  YS02163601YS02164001    1.00   0.00  0.03  0.00  0.97  0.00  0.00  0.00  0.00  0.00
  YS02164001YS02001641    1.00   0.00  0.03  0.00  0.97  0.00  0.00  0.00  0.07  0.00
  YS02001641YS02001644    1.00   0.00  0.00  0.00  1.00  0.00  0.00  0.00  0.00  0.00
  YS02001647YS02001649    1.00   0.00  0.07  0.00  0.93  0.00  0.00  0.00  0.01  0.00
  YS02006553YS02006556    1.00   0.00  0.00  0.00  1.00  0.00  0.00  0.00  0.03  0.00
  YS02006556YS02006558    1.00   0.00  0.00  0.00  1.00  0.00  0.00  0.00  0.00  0.00
  YSB6556YSB1171          1.00   0.01  0.03  0.00  0.96  0.00  0.00  0.00  0.00  0.00
  YS02001907YS02006553    1.00   0.00  0.00  0.00  1.00  0.00  0.00  0.00  0.00  0.00
  YS02006558YS02006561    1.00   0.07  0.00  0.00  0.00  0.93  0.00  0.00  0.70  0.00
  YS02001633YS02163601    1.00   0.00  0.00  0.00  1.00  0.00  0.00  0.00  0.20  0.00
  YS02001644YS02001647    1.00   0.00  0.07  0.00  0.93  0.00  0.00  0.00  0.00  0.00
  YS02001745YS02001748    1.00   0.00  0.00  0.00  0.86  0.01  0.00  0.12  0.68  0.00
  YS02001748YS02001751    1.00   0.00  0.00  0.00  0.97  0.03  0.00  0.00  0.24  0.00
  YS02001751YS02001754    1.00   0.00  0.00  0.00  0.93  0.00  0.00  0.07  0.02  0.00
  YS02001754YS02001757    1.00   0.00  0.00  0.00  1.00  0.00  0.00  0.00  0.26  0.00
  YS02001882YS02001884    1.00   0.06  0.00  0.00  0.94  0.00  0.00  0.00  0.00  0.00
  YS02001884YS02001887    1.00   0.03  0.01  0.00  0.96  0.00  0.00  0.00  0.00  0.00
  YS02001890YS02001895    1.00   0.00  0.06  0.00  0.94  0.00  0.00  0.00  0.00  0.00
  YS02001895YS02001898    1.00   0.06  0.00  0.00  0.93  0.00  0.01  0.00  0.00  0.00
  YS02001898YS02001901    1.00   0.06  0.00  0.00  0.94  0.00  0.00  0.00  0.02  0.00
  YS02001901YS02001904    1.00   0.06  0.00  0.00  0.94  0.00  0.00  0.00  0.00  0.00
  YS02001904YS02001907    1.00   0.00  0.06  0.00  0.94  0.00  0.00  0.00  0.00  0.00
  YS02001887YS02001890    1.00   0.00  0.00  0.00  0.99  0.00  0.01  0.00  0.00  0.00
  YS02001652YS02001649    1.00   0.00  0.00  0.00  1.00  0.00  0.00  0.00  0.26  0.00
  YS02001655YS02001652    1.00   0.00  0.00  0.00  0.93  0.00  0.00  0.07  0.02  0.00
  YS02001658YS02001655    1.00   0.00  0.05  0.00  0.92  0.03  0.00  0.00  0.10  0.00
  YS02001661YS02001658    1.00   0.05  0.00  0.00  0.86  0.09  0.00  0.00  0.72  0.00
  YS02001664YS02001661    1.00   0.04  0.00  0.00  0.74  0.22  0.00  0.00  0.86  0.00
  YSB1154YSB6556          1.00   0.04  0.00  0.00  0.96  0.00  0.00  0.00  0.02  0.00
  YSB1174YSB1171          1.00   0.03  0.01  0.00  0.96  0.00  0.00  0.00  0.00  0.00
  YSB1171HS02004479       1.00   0.01  0.00  0.00  0.97  0.00  0.00  0.02  0.13  0.00
  HS02004881HS02006253    1.00   0.02  0.00  0.00  0.81  0.01  0.00  0.16  0.60  0.00
  YS02001793JiankangQianchi    1.00   0.00  0.00  0.00  0.34  0.66  0.00  0.00  0.27  0.00
  YS02001757CaochengTiaoxuchi    1.00   0.00  0.08  0.00  0.92  0.00  0.00  0.00  0.00  0.00
  WSF200WS02003060        1.00   0.00  0.05  0.00  0.64  0.31  0.00  0.00  0.27  0.00
  1                       1.00   0.00  0.00  0.00  0.00  1.00  0.00  0.00  0.39  0.00
  2                       1.00   0.61  0.00  0.00  0.00  0.39  0.00  0.00  0.12  0.00
  3                       1.00   0.21  0.00  0.00  0.00  0.79  0.00  0.00  0.33  0.00
  4                       1.00   1.00  0.00  0.00  0.00  0.00  0.00  0.00  0.00  0.00
  
  
  *************************
  Conduit Surcharge Summary
  *************************
  
  ----------------------------------------------------------------------------
                                                           Hours        Hours 
                         --------- Hours Full --------   Above Full   Capacity
  Conduit                Both Ends  Upstream  Dnstream   Normal Flow   Limited
  ----------------------------------------------------------------------------
  WS02006229WS02006228        1.34      1.63      1.34      4.41         1.34
  WS02006256WS02006235        5.71      5.71      6.93      2.39         0.01
  WS02006252WS02006251        1.09      1.09      2.46      2.10         0.01
  WS02006251WS02006249        0.01      0.01      0.01      1.11         0.01
  WS02006249WS02006248        0.01      0.01      0.01      4.39         0.01
  WS02006247WS02006245        0.01      0.01      0.01      4.78         0.01
  WS02006245WS02006243        0.01      0.01      0.01      0.07         0.01
  WS02006243WS02006242        0.01      0.01      0.90      0.01         0.01
  WS02006242WS02006240        0.07      0.07      1.45      2.57         0.01
  WS02006240WS02006239        0.36      0.36      0.52      0.02         0.01
  WS02006239WS02006238        1.18      1.18      1.28      0.06         0.03
  WS02006238WS02006235        1.11      1.11      1.84      0.01         0.01
  WS02006235WS02006234        0.12      0.12      0.94      5.69         0.01
  WS02006234WS02006232        0.62      0.62      1.94      0.01         0.01
  WS02006232WS02006231        0.01      0.01      1.94      0.01         0.01
  WS02006231WS02006230        0.01      0.01      0.01      5.77         0.01
  WS02006230WS02006229        3.32      4.21      3.32      5.86         3.32
  WS02006228WS02006109        1.48      2.42      1.48      5.02         1.48
  WS02006112WS02006115        0.01      0.01      0.36      0.01         0.01
  WS02006111WS02006112        0.01      0.01      4.50      0.01         0.01
  WS02006110WS02006113        0.01      0.01      2.05      0.01         0.01
  WS02006109WS02006110        0.13      0.13      2.42      0.13         0.01
  WS02004405WS02004406        0.01      0.01      0.01      0.23         0.01
  WS02004404WS02004405        0.01      0.01      0.01      5.63         0.01
  WS02003072WS02003073        0.01      0.01      0.01      5.02         0.01
  YS02001759YS02001757        4.77      4.77      5.38      0.01         0.01
  YS02001762YS02001759        4.54      4.54      4.77      0.01         0.01
  YS02001765YS02001762        3.38      3.38      4.54      0.01         0.01
  YS02001770YS02001767        0.75      0.76      1.06      0.01         0.02
  YS02001774YS02001770        0.01      0.01      4.40      0.01         0.01
  YS02001779YS02001774        0.01      0.01      4.40      0.01         0.01
  YS02001649YS02001757        4.59      4.59      5.38      0.01         0.01
  YS02001767YS02001765        1.06      1.06      3.38      0.01         0.01
  YS02001788YS02001790        0.01      0.01      0.39      0.01         0.01
  YS02001790YS02001791        0.39      0.39      0.43      0.01         0.01
  YS02001791YS02001793        0.43      0.43      0.55      0.01         0.01
  YS02001629YS02163301        0.01      0.01      0.14      0.01         0.01
  YS02163301YS02001633        0.14      0.14      3.54      0.01         0.01
  YS02163601YS02164001        3.31      3.31      4.57      0.01         0.01
  YS02164001YS02001641        3.31      3.31      4.15      0.01         0.01
  YS02001641YS02001644        4.15      4.15      4.31      0.01         0.16
  YS02001647YS02001649        0.01      0.01      4.59      0.01         0.01
  YS02001633YS02163601        2.14      2.14      4.57      0.01         0.01
  YS02001644YS02001647        0.01      0.01      4.31      0.01         0.01
  YS02001754YS02001757        0.01      0.01      5.38      0.01         0.01
  YS02001652YS02001649        0.01      0.01      4.59      0.01         0.01
  YS02001793JiankangQianchi        0.51      0.51      1.79      0.01         0.01
  YS02001757CaochengTiaoxuchi        0.01      0.01      5.38      0.01         0.01
  
  
  ***************
  Pumping Summary
  ***************
  
  ---------------------------------------------------------------------------------------------------------
                                                  Min       Avg       Max     Total     Power    % Time Off
                        Percent   Number of      Flow      Flow      Flow    Volume     Usage    Pump Curve
  Pump                 Utilized   Start-Ups       LPS       LPS       LPS  10^6 ltr     Kw-hr    Low   High
  ---------------------------------------------------------------------------------------------------------
  CC-Pump-1               68.89           4      0.00    158.76    200.00     3.017     10.92    0.0   26.7
  CC-Pump-2               49.75           6      0.00    124.37    200.00     1.758      6.66    0.0   32.8
  JK-Pump-1               68.09           6      0.00    145.12    300.00     2.271     35.11    0.0    0.0
  JK-Pump-2               76.59           6      0.00    119.99    300.00     1.966     32.05    0.0    0.0
  XR-Pump-1               82.96           6      0.00     65.41     95.00     1.539     13.94    0.0    0.0
  XR-Pump-2               70.19          10      0.00     66.50     95.00     1.311     10.62    0.0    0.0
  XR-Pump-3               95.74           2      0.00     75.43     95.00     2.138     18.49    0.0    0.0
  XR-Pump-4               76.56          12      0.00     60.06     95.00     1.339     10.73    0.0    0.0
  

  Analysis begun on:  Fri Dec 24 17:13:22 2021
  Analysis ended on:  Fri Dec 24 17:13:25 2021
  Total elapsed time: 00:00:03