
  EPA STORM WATER MANAGEMENT MODEL - VERSION 5.1 (Build 5.3.0.dev0)
  --------------------------------------------------------------

  WARNING 04: minimum elevation drop used for Conduit WS02004404WS02004405
  WARNING 03: negative offset ignored for Link YS02001904YS02001907
  
  *********************************************************
  NOTE: The summary statistics displayed in this report are
  based on results found at every computational time step,  
  not just on results from each reporting time step.
  *********************************************************
  
  ****************
  Analysis Options
  ****************
  Flow Units ............... LPS
  Process Models:
    Rainfall/Runoff ........ YES
    RDII ................... NO
    Snowmelt ............... NO
    Groundwater ............ NO
    Flow Routing ........... YES
    Ponding Allowed ........ NO
    Water Quality .......... NO
  Infiltration Method ...... HORTON
  Flow Routing Method ...... DYNWAVE
  Surcharge Method ......... EXTRAN
  Starting Date ............ 08/28/2015 08:00:00
  Ending Date .............. 08/28/2015 15:50:00
  Antecedent Dry Days ...... 8.0
  Report Time Step ......... 00:01:00
  Wet Time Step ............ 00:01:00
  Dry Time Step ............ 00:01:00
  Routing Time Step ........ 5.00 sec
  Variable Time Step ....... YES
  Maximum Trials ........... 8
  Number of Threads ........ 4
  Head Tolerance ........... 0.001500 m
  
  
  **************************        Volume         Depth
  Runoff Quantity Continuity     hectare-m            mm
  **************************     ---------       -------
  Total Precipitation ......         3.523         7.714
  Evaporation Loss .........         0.000         0.000
  Infiltration Loss ........         0.895         1.959
  Surface Runoff ...........         1.685         3.690
  Final Storage ............         0.944         2.067
  Continuity Error (%) .....        -0.018
  
  
  **************************        Volume        Volume
  Flow Routing Continuity        hectare-m      10^6 ltr
  **************************     ---------     ---------
  Dry Weather Inflow .......         0.616         6.165
  Wet Weather Inflow .......         1.685        16.845
  Groundwater Inflow .......         0.000         0.000
  RDII Inflow ..............         0.000         0.000
  External Inflow ..........         0.102         1.024
  External Outflow .........         1.763        17.628
  Flooding Loss ............         0.186         1.863
  Evaporation Loss .........         0.000         0.000
  Exfiltration Loss ........         0.000         0.000
  Initial Stored Volume ....         0.076         0.761
  Final Stored Volume ......         0.598         5.979
  Continuity Error (%) .....        -2.722
  
  
  *************************
  Highest Continuity Errors
  *************************
  Node YS02001774 (35.91%)
  Node HS02004842 (23.53%)
  Node YS02001884 (15.22%)
  Node JK-storage (-12.66%)
  Node YSB1171 (5.13%)
  
  
  ***************************
  Time-Step Critical Elements
  ***************************
  Link WS02006252WS02006251 (54.97%)
  Link 3 (34.41%)
  Link WS02006238WS02006235 (4.04%)
  Link WS02006280WS02006229 (1.85%)
  
  
  ********************************
  Highest Flow Instability Indexes
  ********************************
  Link WS02006113WS02006111 (39)
  Link YS02001779YS02001774 (31)
  Link YS02001774YS02001770 (28)
  Link YS02001619YS02001622 (24)
  Link WS02006111WS02006112 (23)
  
  
  *************************
  Routing Time Step Summary
  *************************
  Minimum Time Step           :     0.36 sec
  Average Time Step           :     0.86 sec
  Maximum Time Step           :     5.00 sec
  Percent in Steady State     :    -0.00
  Average Iterations per Step :     4.82
  Percent Not Converging      :    32.22
  
  
  ***************************
  Subcatchment Runoff Summary
  ***************************
  
  ------------------------------------------------------------------------------------------------------------------------------
                            Total      Total      Total      Total     Imperv       Perv      Total       Total     Peak  Runoff
                           Precip      Runon       Evap      Infil     Runoff     Runoff     Runoff      Runoff   Runoff   Coeff
  Subcatchment                 mm         mm         mm         mm         mm         mm         mm    10^6 ltr      LPS
  ------------------------------------------------------------------------------------------------------------------------------
  sub0                       7.71       0.00       0.00       0.54       5.91       0.00       5.91        0.00     2.17   0.766
  sub1                       7.71       0.00       0.00       0.85       5.61       0.00       5.61        0.04    11.61   0.727
  sub2                       7.71       0.00       0.00       2.85       3.95       0.00       3.95        0.04    10.31   0.512
  sub3                       7.71       0.00       0.00       2.85       3.92       0.00       3.92        0.09    21.31   0.508
  sub4                       7.71       0.00       0.00       0.85       5.46       0.00       5.46        0.11    24.01   0.708
  sub5                       7.71       0.00       0.00       0.54       5.86       0.00       5.86        0.07    20.66   0.760
  sub7                       7.71       0.00       0.00       0.69       5.77       0.00       5.77        0.02     7.23   0.747
  sub8                       7.71       0.00       0.00       0.69       5.76       0.00       5.76        0.04    12.80   0.746
  sub9                       7.71       0.00       0.00       0.69       5.75       0.00       5.75        0.03     9.49   0.746
  sub10                      7.71       0.00       0.00       0.62       5.81       0.00       5.81        0.06    20.59   0.753
  sub11                      7.71       0.00       0.00       0.62       5.82       0.00       5.82        0.07    24.05   0.755
  sub12                      7.71       0.00       0.00       1.00       5.52       0.00       5.52        0.05    20.16   0.716
  sub14                      7.71       0.00       0.00       0.69       5.75       0.00       5.75        0.05    18.55   0.746
  sub15                      7.71       0.00       0.00       2.31       4.42       0.00       4.42        0.08    25.20   0.573
  sub16                      7.71       0.00       0.00       2.55       4.25       0.00       4.25        0.04    17.78   0.551
  sub17                      7.71       0.00       0.00       2.47       4.31       0.00       4.31        0.04    14.39   0.559
  sub22                      7.71       0.00       0.00       3.32       3.61       0.00       3.61        0.23    82.19   0.468
  sub23                      7.71       0.00       0.00       2.85       3.99       0.00       3.99        0.19    69.97   0.517
  sub60                      7.71       0.00       0.00       0.93       4.17       0.00       4.17        1.26   125.11   0.540
  sub61                      7.71       0.00       0.00       1.31       4.37       0.00       4.37        1.35   155.98   0.566
  sub62                      7.71       0.00       0.00       0.62       4.71       0.00       4.71        1.45   159.69   0.610
  sub63                      7.71       0.00       0.00       2.24       3.86       0.00       3.86        1.17   145.24   0.500
  sub64                      7.71       0.00       0.00       1.16       3.99       0.00       3.99        1.21   118.90   0.517
  sub65                      7.71       0.00       0.00       1.00       4.04       0.00       4.04        1.24   120.72   0.524
  sub66                      7.71       0.00       0.00       2.24       3.46       0.00       3.46        1.06   108.74   0.448
  sub67                      7.71       0.00       0.00       0.62       5.09       0.00       5.09        1.57   203.88   0.660
  sub68                      7.71       0.00       0.00       1.08       4.62       0.00       4.62        1.42   172.19   0.599
  sub69                      7.71       0.00       0.00       1.16       4.91       0.00       4.91        1.15   169.99   0.636
  sub70                      7.71       5.01       0.00       4.33       6.25       0.00       6.25        1.43   142.93   0.491
  sub71                      7.71       0.00       0.00       0.62       4.53       0.00       4.53        1.07   111.70   0.588
  sub72                      7.71       0.00       0.00       0.54       3.35       0.00       3.35        0.68    54.30   0.434
  sub73                      7.71       6.08       0.00       4.69       6.54       0.00       6.54        1.54   124.99   0.474
  sub74                      7.71       0.00       0.00       5.79       1.47       0.00       1.47        0.59    94.63   0.191
  
  
  ******************
  Node Depth Summary
  ******************
  
  ---------------------------------------------------------------------------------
                                 Average  Maximum  Maximum  Time of Max    Reported
                                   Depth    Depth      HGL   Occurrence   Max Depth
  Node                 Type       Meters   Meters   Meters  days hr:min      Meters
  ---------------------------------------------------------------------------------
  WS02001211           JUNCTION     0.66     0.77     5.61     0  04:10        0.77
  WS02001212           JUNCTION     0.38     0.47     5.54     0  04:11        0.47
  WS02001213           JUNCTION     0.61     0.71     5.48     0  04:11        0.71
  WS02003069           JUNCTION     0.44     0.54     5.13     0  02:58        0.54
  WS02003072           JUNCTION     0.50     0.60     4.97     0  02:58        0.60
  WS02003073           JUNCTION     0.30     0.37     4.43     0  02:59        0.37
  WS02003060           JUNCTION     0.39     0.48     5.41     0  02:57        0.48
  WS02003066           JUNCTION     0.24     0.31     5.86     0  02:28        0.31
  WS02003059           JUNCTION     0.67     0.76     5.45     0  04:12        0.76
  WS02003067           JUNCTION     0.58     0.72     6.04     0  02:27        0.72
  WS02004401           JUNCTION     0.68     0.89     6.89     0  02:25        0.89
  WS02004402           JUNCTION     0.71     0.91     6.87     0  02:25        0.91
  WS02004403           JUNCTION     0.73     0.93     6.86     0  02:25        0.93
  WS02004404           JUNCTION     0.81     1.00     6.85     0  02:25        1.00
  WS02004406           JUNCTION     0.81     0.98     6.81     0  02:26        0.98
  WS02004409           JUNCTION     0.50     0.70     6.47     0  02:27        0.70
  WS02004410           JUNCTION     0.52     0.71     6.43     0  02:27        0.71
  WS02004411           JUNCTION     0.53     0.72     6.40     0  02:27        0.72
  WS02004412           JUNCTION     0.55     0.72     6.36     0  02:27        0.72
  WS02004413           JUNCTION     0.71     0.88     6.35     0  02:27        0.88
  WS02004405           JUNCTION     0.80     0.99     6.84     0  02:25        0.99
  WS02006109           JUNCTION     0.76     1.02     7.64     0  02:18        1.02
  WS02006110           JUNCTION     0.75     0.96     7.54     0  02:19        0.96
  WS02006111           JUNCTION     0.22     0.30     7.01     0  02:19        0.30
  WS02006112           JUNCTION     0.85     1.13     7.01     0  02:22        1.12
  WS02006113           JUNCTION     0.35     0.48     7.37     0  02:20        0.48
  WS02006115           JUNCTION     0.57     0.80     6.94     0  02:24        0.80
  WS02006116           JUNCTION     0.66     0.87     6.91     0  02:25        0.87
  WS02006230           JUNCTION     0.74     1.07     7.81     0  02:19        1.07
  WS02006231           JUNCTION     0.49     0.73     7.85     0  02:18        0.72
  WS02006232           JUNCTION     0.63     0.84     7.88     0  02:18        0.84
  WS02006234           JUNCTION     0.55     0.75     7.91     0  02:21        0.75
  WS02006235           JUNCTION     0.59     0.78     7.95     0  02:50        0.78
  WS02006238           JUNCTION     0.61     0.81     7.96     0  02:50        0.81
  WS02006240           JUNCTION     0.51     0.74     8.03     0  02:50        0.74
  WS02006242           JUNCTION     0.57     0.81     8.07     0  02:43        0.80
  WS02006243           JUNCTION     0.45     0.70     8.12     0  02:50        0.70
  WS02006245           JUNCTION     0.43     0.67     8.15     0  02:50        0.67
  WS02006247           JUNCTION     0.45     0.67     8.17     0  02:50        0.67
  WS02006248           JUNCTION     0.40     0.61     8.20     0  02:48        0.61
  WS02006249           JUNCTION     0.43     0.62     8.22     0  02:46        0.62
  WS02006239           JUNCTION     0.57     0.78     7.99     0  02:50        0.78
  WS02006251           JUNCTION     0.42     0.65     8.32     0  02:44        0.65
  WS02006252           JUNCTION     0.38     0.59     8.84     0  04:51        0.59
  WS02006253           JUNCTION     0.45     0.68     8.32     0  02:44        0.68
  WS02006256           JUNCTION     1.02     1.20     8.14     0  04:09        1.20
  WS02004138           JUNCTION     0.15     0.19     7.44     0  04:10        0.19
  WS02004407           JUNCTION     0.23     0.31     6.62     0  02:26        0.31
  WS02006228           JUNCTION     0.76     1.07     7.73     0  02:18        1.07
  WS02006229           JUNCTION     0.74     1.08     7.78     0  02:18        1.08
  WS02006280           JUNCTION     0.06     0.18     8.45     0  02:14        0.18
  WS02006284           JUNCTION     0.35     0.53     8.93     0  02:14        0.53
  WS02006287           JUNCTION     0.08     0.26     9.22     0  02:14        0.26
  WSF200               JUNCTION     0.22     0.32     5.55     0  02:29        0.32
  HS02004901           JUNCTION     0.11     0.27    10.09     0  02:12        0.27
  HS02004881           JUNCTION     0.01     0.03     9.06     0  02:14        0.03
  HS02004876           JUNCTION     0.04     0.11     9.14     0  02:09        0.11
  HS02004870           JUNCTION     0.01     0.05     9.34     0  02:15        0.05
  HS02004862           JUNCTION     0.01     0.06     9.45     0  02:15        0.06
  HS02004856           JUNCTION     0.08     0.12     9.54     0  02:15        0.12
  HS02004852           JUNCTION     0.01     0.04     9.55     0  02:16        0.04
  HS02004848           JUNCTION     0.01     0.04     9.64     0  02:15        0.04
  HS02004842           JUNCTION     0.33     0.37     9.64     0  02:14        0.37
  HS02004837           JUNCTION     0.03     0.06     9.64     0  02:14        0.06
  HS02004830           JUNCTION     0.04     0.07     9.54     0  02:15        0.07
  HS02004824           JUNCTION     0.02     0.05     9.45     0  02:18        0.05
  HS02004817           JUNCTION     0.43     0.57     9.42     0  02:15        0.57
  HS02004807           JUNCTION     0.12     0.24     9.41     0  02:15        0.24
  HS02004802           JUNCTION     0.15     0.28     9.41     0  02:14        0.28
  HS02004799           JUNCTION     0.10     0.32     9.53     0  02:12        0.32
  HS02004792           JUNCTION     0.03     0.13     9.65     0  02:12        0.13
  HS02004788           JUNCTION     0.02     0.10    10.00     0  02:13        0.10
  HS02004785           JUNCTION     0.04     0.17    10.07     0  02:12        0.17
  HS02004777           JUNCTION     0.14     0.29    10.09     0  02:12        0.29
  HS02004770           JUNCTION     0.11     0.26    10.09     0  02:12        0.26
  HS02004480           JUNCTION     0.07     0.25     9.49     0  02:13        0.25
  HS02004479           JUNCTION     0.10     0.29     9.49     0  02:13        0.29
  HS02004478           JUNCTION     0.05     0.17     9.39     0  02:14        0.17
  YS02001745           JUNCTION     0.54     0.83     8.34     0  04:48        0.83
  YS02001748           JUNCTION     0.93     1.56     8.64     0  03:46        1.26
  YS02001751           JUNCTION     1.11     2.20     9.08     0  03:12        1.46
  YS02001754           JUNCTION     1.36     2.09     8.70     0  03:12        1.74
  YS02001762           JUNCTION     1.56     1.97     8.37     0  04:49        1.96
  YS02001765           JUNCTION     1.51     1.92     8.37     0  04:49        1.91
  YS02001767           JUNCTION     1.47     1.88     8.37     0  04:49        1.87
  YS02001770           JUNCTION     1.47     1.88     8.37     0  04:46        1.86
  YS02001774           JUNCTION     1.54     1.95     8.37     0  04:45        1.94
  YS02001779           JUNCTION     1.29     1.68     8.37     0  02:52        1.68
  YS02001882           JUNCTION     0.34     0.60     7.32     0  02:49        0.60
  YS02001884           JUNCTION     0.43     0.70     7.31     0  02:46        0.70
  YS02001759           JUNCTION     1.59     2.00     8.36     0  04:47        1.99
  YS02001887           JUNCTION     0.51     0.78     7.31     0  02:46        0.77
  YS02001890           JUNCTION     0.54     0.81     7.31     0  02:48        0.80
  YS02001898           JUNCTION     0.31     0.56     7.30     0  02:48        0.56
  YS02001901           JUNCTION     0.43     0.69     7.30     0  02:47        0.69
  YS02001904           JUNCTION     0.41     0.66     7.29     0  02:46        0.66
  YS02001907           JUNCTION     0.73     1.01     7.30     0  02:51        1.00
  YS02001910           JUNCTION     0.52     0.79     7.30     0  02:53        0.79
  YS02001915           JUNCTION     0.32     0.57     7.29     0  02:48        0.57
  YS02001918           JUNCTION     0.11     0.22     7.29     0  02:49        0.22
  YS02001619           JUNCTION     1.07     1.52     8.45     0  03:39        1.46
  YS02001629           JUNCTION     1.42     1.85     8.40     0  03:48        1.83
  YS02001641           JUNCTION     1.53     1.94     8.37     0  03:54        1.92
  YS02001644           JUNCTION     1.53     1.92     8.35     0  04:37        1.92
  YS02001652           JUNCTION     1.37     2.07     8.66     0  03:07        1.77
  YS02001655           JUNCTION     1.14     2.20     9.05     0  02:59        1.83
  YS02001920           JUNCTION     0.20     0.30     7.30     0  02:49        0.29
  YS02001923           JUNCTION     0.08     0.11     7.37     0  03:01        0.11
  YS02001926           JUNCTION     0.16     0.21     7.66     0  03:01        0.21
  YS02001929           JUNCTION     0.08     0.11     7.80     0  03:01        0.11
  YS02001658           JUNCTION     0.87     2.09     9.23     0  03:33        1.29
  YS02001661           JUNCTION     0.64     1.03     8.44     0  04:46        1.02
  YS02001664           JUNCTION     0.23     0.52     8.44     0  04:44        0.51
  YS02001622           JUNCTION     1.10     1.53     8.44     0  03:39        1.49
  YS02001633           JUNCTION     1.52     1.97     8.42     0  03:54        1.92
  YS02001649           JUNCTION     1.57     1.99     8.38     0  04:47        1.97
  YS02001757           JUNCTION     1.69     2.10     8.36     0  04:47        2.09
  YS02001895           JUNCTION     0.30     0.56     7.30     0  02:45        0.56
  YS02001625           JUNCTION     1.38     1.78     8.38     0  03:38        1.78
  YS02163301           JUNCTION     1.45     1.90     8.42     0  03:54        1.86
  YS02163601           JUNCTION     1.57     2.02     8.41     0  03:54        1.97
  YS02164001           JUNCTION     1.51     1.94     8.40     0  03:54        1.91
  YS02001647           JUNCTION     1.36     1.75     8.36     0  04:51        1.75
  YSB1154              JUNCTION     0.24     0.44     9.50     0  02:13        0.44
  YSB6556              JUNCTION     0.14     0.33     9.49     0  02:13        0.33
  YSB1174              JUNCTION     0.19     0.39     9.50     0  02:13        0.39
  YSB1171              JUNCTION     0.39     0.59     9.50     0  02:13        0.59
  YS02006553           JUNCTION     0.74     1.03     7.31     0  02:46        1.02
  YS02006561           JUNCTION     0.17     0.31     6.97     0  02:37        0.30
  YS02006556           JUNCTION     0.71     0.98     7.29     0  02:48        0.97
  YS02006558           JUNCTION     0.75     1.03     7.29     0  02:56        1.02
  YS02001783           JUNCTION     0.33     1.33     7.47     0  02:37        0.87
  YS02001784           JUNCTION     0.37     1.17     7.24     0  02:37        0.89
  YS02001786           JUNCTION     0.34     1.11     7.14     0  02:37        0.87
  YS02001788           JUNCTION     0.29     1.39     7.37     0  02:37        0.85
  YS02001790           JUNCTION     0.39     1.96     7.60     0  02:35        1.11
  YS02001791           JUNCTION     0.37     1.68     7.15     0  02:35        1.20
  YS02001793           JUNCTION     0.48     3.60     8.43     0  02:32        1.78
  WS02004139           JUNCTION     0.60     0.71     5.62     0  04:10        0.71
  WSC                  OUTFALL      0.30     0.37     1.04     0  02:59        0.37
  3                    OUTFALL      0.08     0.20     6.20     0  04:09        0.20
  4                    OUTFALL      0.02     0.12     7.12     0  02:46        0.12
  5                    OUTFALL      0.00     0.00     5.00     0  00:00        0.00
  JK-storage           STORAGE      1.76     5.80     6.60     0  02:36        5.80
  CC-storage           STORAGE      0.93     1.32     8.32     0  04:48        1.32
  XR-storage           STORAGE      7.02     7.72     5.72     0  03:06        7.72
  
  
  *******************
  Node Inflow Summary
  *******************
  
  -------------------------------------------------------------------------------------------------
                                  Maximum  Maximum                  Lateral       Total        Flow
                                  Lateral    Total  Time of Max      Inflow      Inflow     Balance
                                   Inflow   Inflow   Occurrence      Volume      Volume       Error
  Node                 Type           LPS      LPS  days hr:min    10^6 ltr    10^6 ltr     Percent
  -------------------------------------------------------------------------------------------------
  WS02001211           JUNCTION      7.35   381.12     0  04:10       0.207        6.76       0.434
  WS02001212           JUNCTION      0.00   376.70     0  04:11           0        6.73       0.258
  WS02001213           JUNCTION      0.00   375.01     0  04:11           0        6.72       0.299
  WS02003069           JUNCTION      0.32   826.34     0  02:57     0.00902        14.6       0.184
  WS02003072           JUNCTION      0.00   826.21     0  02:58           0        14.5       0.230
  WS02003073           JUNCTION      1.82   828.02     0  02:58      0.0514        14.5       0.253
  WS02003060           JUNCTION     16.53   826.16     0  02:57       0.466        14.6       0.176
  WS02003066           JUNCTION      0.00   579.01     0  02:28           0        7.45       0.060
  WS02003059           JUNCTION      0.00   373.69     0  04:11           0         6.7       0.508
  WS02003067           JUNCTION      0.00   578.79     0  02:28           0        7.46       0.126
  WS02004401           JUNCTION      0.00   586.97     0  02:23           0        7.69       0.284
  WS02004402           JUNCTION      0.00   586.19     0  02:24           0        7.67       0.268
  WS02004403           JUNCTION      0.00   585.84     0  02:25           0        7.65       0.243
  WS02004404           JUNCTION      0.16   585.83     0  02:25     0.00457        7.64       0.183
  WS02004406           JUNCTION      0.00   585.92     0  02:25           0         7.6       0.445
  WS02004409           JUNCTION      0.00   585.14     0  02:26           0        7.56       0.220
  WS02004410           JUNCTION      0.00   582.39     0  02:26           0        7.55       0.247
  WS02004411           JUNCTION      0.00   580.67     0  02:26           0        7.53       0.253
  WS02004412           JUNCTION      0.00   579.63     0  02:27           0        7.51       0.272
  WS02004413           JUNCTION      0.00   579.11     0  02:27           0        7.49       0.402
  WS02004405           JUNCTION      0.04   585.85     0  02:25     0.00107        7.63       0.273
  WS02006109           JUNCTION      1.23   587.43     0  02:18      0.0347        7.78       0.274
  WS02006110           JUNCTION      0.00   587.38     0  02:18           0        7.76       0.260
  WS02006111           JUNCTION      0.00   612.86     0  02:19           0        7.73       0.060
  WS02006112           JUNCTION     14.39   603.52     0  02:19       0.037        7.76       0.382
  WS02006113           JUNCTION      0.00   588.66     0  02:19           0        7.74       0.129
  WS02006115           JUNCTION      0.00   607.40     0  02:22           0        7.73       0.267
  WS02006116           JUNCTION      0.00   591.32     0  02:22           0        7.71       0.253
  WS02006230           JUNCTION     10.28   399.39     0  04:12        0.29         6.6       0.206
  WS02006231           JUNCTION      0.00   389.97     0  04:11           0        6.32       0.176
  WS02006232           JUNCTION      0.00   389.96     0  04:11           0        6.34       0.259
  WS02006234           JUNCTION      0.00   391.61     0  04:11           0        6.35       0.136
  WS02006235           JUNCTION      0.00   391.08     0  04:11           0        6.39       0.170
  WS02006238           JUNCTION      0.00   328.75     0  03:12           0        4.58       0.159
  WS02006240           JUNCTION      0.00   334.54     0  03:11           0        4.57       0.264
  WS02006242           JUNCTION      0.00   338.77     0  03:11           0        4.58       0.323
  WS02006243           JUNCTION      0.00   340.19     0  03:11           0        4.57      -0.128
  WS02006245           JUNCTION      0.00   343.80     0  02:41           0        4.58       0.256
  WS02006247           JUNCTION      0.00   347.94     0  02:40           0        4.58       0.152
  WS02006248           JUNCTION      0.00   353.64     0  04:50           0        4.59       0.083
  WS02006249           JUNCTION      0.00   436.25     0  02:41           0           5       0.213
  WS02006239           JUNCTION      0.00   333.26     0  03:12           0        4.58       0.227
  WS02006251           JUNCTION      0.08   437.78     0  02:41     0.00217        5.04       0.178
  WS02006252           JUNCTION      0.00   400.00     0  02:40           0         4.8       0.009
  WS02006253           JUNCTION      2.17    65.80     0  02:14     0.00478       0.237       1.584
  WS02006256           JUNCTION      0.00   600.00     0  04:00           0        4.55       0.068
  WS02004138           JUNCTION      0.00   379.99     0  03:30           0        6.58       0.069
  WS02004407           JUNCTION      0.00   585.42     0  02:26           0        7.57       0.100
  WS02006228           JUNCTION      0.00   586.18     0  02:18           0        7.76       0.196
  WS02006229           JUNCTION      0.00   586.82     0  02:19           0        7.78       0.176
  WS02006280           JUNCTION      0.00   325.59     0  02:14           0        1.19       0.006
  WS02006284           JUNCTION      0.10   325.56     0  02:14      0.0027        1.19       0.095
  WS02006287           JUNCTION      0.00   325.39     0  02:14           0        1.19       0.061
  WSF200               JUNCTION      0.00   579.07     0  02:28           0        7.44       0.059
  HS02004901           JUNCTION     17.78    17.78     0  02:08      0.0445      0.0446       4.100
  HS02004881           JUNCTION      7.23    64.14     0  02:14      0.0194       0.207       0.169
  HS02004876           JUNCTION     11.61    57.11     0  02:14      0.0373       0.188       0.285
  HS02004870           JUNCTION     12.80    45.72     0  02:14      0.0368       0.151       0.070
  HS02004862           JUNCTION     10.51    33.74     0  02:15      0.0425       0.115       0.147
  HS02004856           JUNCTION      9.49    23.30     0  02:14      0.0277      0.0735       1.993
  HS02004852           JUNCTION      0.00    14.38     0  02:15           0      0.0459       0.114
  HS02004848           JUNCTION     21.31    21.31     0  02:17      0.0881      0.0881       0.049
  HS02004842           JUNCTION      0.00     7.73     0  02:26           0      0.0553      30.765
  HS02004837           JUNCTION     26.94    33.22     0  02:14       0.243       0.285       0.285
  HS02004830           JUNCTION      0.15    33.34     0  02:14     0.00423       0.276       0.450
  HS02004824           JUNCTION     24.06    57.11     0  02:17       0.115        0.39       0.138
  HS02004817           JUNCTION      0.60    57.70     0  02:18      0.0169       0.406       4.279
  HS02004807           JUNCTION     24.05    79.71     0  02:16      0.0676       0.457       0.933
  HS02004802           JUNCTION      0.00    80.31     0  02:17           0       0.453       0.905
  HS02004799           JUNCTION     18.55   209.66     0  02:12      0.0547       0.642       0.357
  HS02004792           JUNCTION     82.47   191.41     0  02:12       0.236       0.588       0.069
  HS02004788           JUNCTION     26.87   111.23     0  02:12       0.123       0.353       0.110
  HS02004785           JUNCTION      0.15    84.71     0  02:12     0.00423       0.232       0.210
  HS02004777           JUNCTION      0.03    85.09     0  02:10    0.000846       0.232       2.282
  HS02004770           JUNCTION     69.97    86.36     0  02:10        0.19       0.233       1.345
  HS02004480           JUNCTION      0.00   247.45     0  02:12           0       0.753       0.103
  HS02004479           JUNCTION      0.00    38.52     0  02:14           0       0.124       0.593
  HS02004478           JUNCTION      0.00   325.38     0  02:14           0        1.19       0.050
  YS02001745           JUNCTION    125.11   280.10     0  03:38        1.26        1.32       0.701
  YS02001748           JUNCTION      0.04   362.27     0  03:39     0.00127        1.32       1.637
  YS02001751           JUNCTION      0.01   355.51     0  03:12     0.00031        1.24       1.840
  YS02001754           JUNCTION      0.26   208.58     0  02:51     0.00733        1.22       1.990
  YS02001762           JUNCTION      0.00   183.42     0  02:51           0        1.38       1.538
  YS02001765           JUNCTION      0.00   182.96     0  02:51           0        1.38       1.772
  YS02001767           JUNCTION      0.54   182.43     0  02:54      0.0151         1.4       2.608
  YS02001770           JUNCTION    159.84   180.14     0  02:52        1.45        1.47       2.200
  YS02001774           JUNCTION      0.00    59.85     0  02:11           0      0.0699      56.029
  YS02001779           JUNCTION      0.01    37.37     0  02:52    0.000141      0.0283     102.256
  YS02001882           JUNCTION      0.00    10.24     0  02:49           0      0.0105      21.611
  YS02001884           JUNCTION      0.00    17.24     0  02:09           0      0.0348      17.951
  YS02001759           JUNCTION    156.02   339.40     0  02:54        1.35        2.69       0.855
  YS02001887           JUNCTION    204.33   211.31     0  02:38        1.58         1.6       0.477
  YS02001890           JUNCTION      0.00   211.56     0  02:50           0        1.57       0.532
  YS02001898           JUNCTION      0.00   213.55     0  02:50           0        1.56       0.165
  YS02001901           JUNCTION      0.00   216.87     0  02:47           0        1.55       0.385
  YS02001904           JUNCTION      0.00   221.26     0  02:47           0        1.55       0.357
  YS02001907           JUNCTION      0.00   416.17     0  02:53           0        3.37       0.680
  YS02001910           JUNCTION      0.00   190.76     0  02:53           0        1.82       0.589
  YS02001915           JUNCTION    111.72   174.19     0  02:53        1.07        1.83       0.278
  YS02001918           JUNCTION      0.00    59.29     0  02:53           0        0.76       0.184
  YS02001619           JUNCTION    108.74   108.74     0  02:51        1.06        1.06       1.124
  YS02001629           JUNCTION      0.00   218.02     0  02:56           0       0.987       2.910
  YS02001641           JUNCTION      0.00   281.80     0  02:30           0        2.13       0.995
  YS02001644           JUNCTION    118.94   391.88     0  02:30        1.21        3.31       0.790
  YS02001652           JUNCTION      0.00   230.80     0  02:51           0        1.11       2.088
  YS02001655           JUNCTION      0.15   386.64     0  02:51     0.00434        1.14       2.064
  YS02001920           JUNCTION      2.87    57.17     0  03:01      0.0809       0.762       0.311
  YS02001923           JUNCTION      0.04    54.30     0  03:01     0.00106       0.682       0.056
  YS02001926           JUNCTION      0.05    54.34     0  03:01     0.00147       0.683       0.386
  YS02001929           JUNCTION     54.30    54.30     0  03:01       0.682       0.682       0.054
  YS02001658           JUNCTION      0.00   417.01     0  03:32           0        1.24       1.568
  YS02001661           JUNCTION      0.00   333.82     0  04:37           0        1.68       0.778
  YS02001664           JUNCTION    145.24   297.55     0  04:38        1.17         1.6       0.242
  YS02001622           JUNCTION      0.00   166.73     0  02:57           0        1.05       3.094
  YS02001633           JUNCTION    120.92   284.13     0  02:30        1.25        2.19       1.468
  YS02001649           JUNCTION      0.00   571.12     0  02:51           0        4.33       0.859
  YS02001757           JUNCTION      0.00   994.01     0  02:29           0        8.11       1.146
  YS02001895           JUNCTION      0.00   208.65     0  02:46           0        1.56       0.266
  YS02001625           JUNCTION      0.00   219.52     0  02:56           0        1.02       3.975
  YS02163301           JUNCTION      0.00   168.29     0  02:30           0       0.976       2.481
  YS02163601           JUNCTION      0.11   287.07     0  02:30      0.0031        2.15       1.407
  YS02164001           JUNCTION      0.00   285.71     0  02:30           0        2.13       0.937
  YS02001647           JUNCTION      0.00   395.07     0  02:30           0        3.26       0.847
  YSB1154              JUNCTION     20.66    20.66     0  02:12      0.0664      0.0677       2.179
  YSB6556              JUNCTION      0.00    20.69     0  02:14           0      0.0686       1.853
  YSB1174              JUNCTION     20.16    20.16     0  02:07      0.0482      0.0492       2.678
  YSB1171              JUNCTION      0.00    38.49     0  02:13           0       0.123       5.406
  YS02006553           JUNCTION      0.00   398.88     0  02:54           0        3.36       0.440
  YS02006561           JUNCTION      0.00   602.23     0  02:46           0        4.75       0.002
  YS02006556           JUNCTION      0.00   401.15     0  02:54           0        3.36       0.317
  YS02006558           JUNCTION    173.07   578.43     0  02:46        1.45        4.78       0.112
  YS02001783           JUNCTION      0.00   569.52     0  02:46           0        4.75       0.037
  YS02001784           JUNCTION      1.06   561.97     0  02:46      0.0299        4.78       0.061
  YS02001786           JUNCTION      0.06   560.61     0  02:38     0.00159        4.77       0.056
  YS02001788           JUNCTION      0.07   565.04     0  02:38       0.002        4.77       0.035
  YS02001790           JUNCTION      0.15   565.73     0  03:00     0.00437        4.78       0.039
  YS02001791           JUNCTION      0.00   565.71     0  03:00           0        4.77       0.022
  YS02001793           JUNCTION      0.00   800.37     0  02:32           0        4.78      -0.039
  WS02004139           JUNCTION      0.32   379.52     0  04:10     0.00905        6.59       0.500
  WSC                  OUTFALL       0.00   828.01     0  02:59           0        14.5       0.000
  3                    OUTFALL       0.00   499.59     0  04:09           0        2.72       0.000
  4                    OUTFALL       0.00   143.70     0  02:46           0       0.405       0.000
  5                    OUTFALL       0.00     0.00     0  00:00           0           0       0.000 ltr
  JK-storage           STORAGE       0.00  1095.95     0  02:32           0        4.93     -11.238
  CC-storage           STORAGE       0.00   994.68     0  02:29           0        8.02       0.490
  XR-storage           STORAGE     402.22   402.22     0  02:49        7.77        8.37      -0.003
  
  
  **********************
  Node Surcharge Summary
  **********************
  
  Surcharging occurs when water rises above the top of the highest conduit.
  ---------------------------------------------------------------------
                                               Max. Height   Min. Depth
                                   Hours       Above Crown    Below Rim
  Node                 Type      Surcharged         Meters       Meters
  ---------------------------------------------------------------------
  WS02006109           JUNCTION        2.07          0.201        1.619
  WS02006110           JUNCTION        0.32          0.048        1.802
  WS02006112           JUNCTION        0.60          0.130        1.550
  WS02006231           JUNCTION        0.08          0.015        1.515
  WS02006232           JUNCTION        2.17          0.137        1.343
  WS02006234           JUNCTION        0.35          0.035        1.205
  WS02006235           JUNCTION        1.20          0.073        1.217
  WS02006238           JUNCTION        1.57          0.091        1.339
  WS02006240           JUNCTION        0.19          0.025        1.365
  WS02006242           JUNCTION        1.11          0.075        0.745
  WS02006239           JUNCTION        0.37          0.044        1.246
  WS02006252           JUNCTION        2.40          0.193        0.907
  WS02006228           JUNCTION        1.92          0.244        1.956
  YS02001748           JUNCTION        3.46          0.484        0.706
  YS02001751           JUNCTION        4.48          1.200        0.000
  YS02001754           JUNCTION        5.19          1.041        0.109
  YS02001762           JUNCTION        5.47          0.967        0.183
  YS02001765           JUNCTION        5.45          0.924        0.176
  YS02001767           JUNCTION        5.42          0.884        0.146
  YS02001770           JUNCTION        5.35          0.846        0.074
  YS02001774           JUNCTION        5.47          0.952        0.098
  YS02001779           JUNCTION        5.08          0.680        0.000
  YS02001759           JUNCTION        5.49          1.000        0.210
  YS02001619           JUNCTION        4.40          0.525        0.085
  YS02001629           JUNCTION        4.44          0.470        0.000
  YS02001641           JUNCTION        5.46          0.936        0.164
  YS02001644           JUNCTION        5.46          0.920        0.000
  YS02001652           JUNCTION        5.24          1.036        0.094
  YS02001655           JUNCTION        4.59          1.200        0.000
  YS02001658           JUNCTION        3.57          1.087        0.213
  YS02001622           JUNCTION        4.47          0.533        0.087
  YS02001633           JUNCTION        5.44          0.949        0.111
  YS02001649           JUNCTION        5.47          0.986        0.064
  YS02001757           JUNCTION        5.53          1.100        0.110
  YS02001625           JUNCTION        5.26          0.780        0.000
  YS02163301           JUNCTION        5.40          0.900        0.130
  YS02163601           JUNCTION        5.47          1.015        0.065
  YS02164001           JUNCTION        5.44          0.941        0.159
  YS02001647           JUNCTION        5.24          0.755        0.145
  YS02006553           JUNCTION        0.07          0.028        1.162
  YS02001783           JUNCTION        0.01          0.533        1.067
  YS02001784           JUNCTION        0.02          0.368        1.122
  YS02001786           JUNCTION        0.01          0.308        1.122
  YS02001788           JUNCTION        0.01          0.591        0.889
  YS02001790           JUNCTION        1.33          1.157        0.000
  YS02001791           JUNCTION        1.37          0.883        1.037
  YS02001793           JUNCTION        1.45          2.600        0.000
  
  
  *********************
  Node Flooding Summary
  *********************
  
  Flooding refers to all water that overflows a node, whether it ponds or not.
  --------------------------------------------------------------------------
                                                             Total   Maximum
                                 Maximum   Time of Max       Flood    Ponded
                        Hours       Rate    Occurrence      Volume     Depth
  Node                 Flooded       LPS   days hr:min    10^6 ltr    Meters
  --------------------------------------------------------------------------
  YS02001751              0.01    144.76      0  03:12       0.000     0.000
  YS02001779              0.01     23.50      0  02:52       0.000     0.000
  YS02001629              0.01     16.98      0  03:48       0.000     0.000
  YS02001644              0.24     28.77      0  04:50       0.007     0.000
  YS02001655              0.01    142.20      0  03:07       0.000     0.000
  YS02001625              0.05     10.68      0  03:48       0.000     0.000
  YS02001790              0.01    107.36      0  02:35       0.000     0.000
  YS02001793              0.01    363.30      0  02:32       0.000     0.000
  JK-storage              1.15    530.35      0  02:40       0.999     0.000
  XR-storage              2.98    180.42      0  05:20       0.855     0.000
  
  
  **********************
  Storage Volume Summary
  **********************
  
  --------------------------------------------------------------------------------------------------
                         Average     Avg  Evap Exfil       Maximum     Max    Time of Max    Maximum
                          Volume    Pcnt  Pcnt  Pcnt        Volume    Pcnt     Occurrence    Outflow
  Storage Unit           1000 m3    Full  Loss  Loss       1000 m3    Full    days hr:min        LPS
  --------------------------------------------------------------------------------------------------
  JK-storage               0.089      30     0     0         0.291     100       0  02:36     600.00
  CC-storage               2.600      17     0     0         3.675      23       0  04:48     400.00
  XR-storage               0.842      91     0     0         0.926     100       0  03:06     379.99
  
  
  ***********************
  Outfall Loading Summary
  ***********************
  
  -----------------------------------------------------------
                         Flow       Avg       Max       Total
                         Freq      Flow      Flow      Volume
  Outfall Node           Pcnt       LPS       LPS    10^6 ltr
  -----------------------------------------------------------
  WSC                   99.99    585.81    828.01      14.507
  3                     78.72    174.38    499.59       2.716
  4                     38.28     46.55    143.70       0.405
  5                      0.00      0.00      0.00       0.000
  -----------------------------------------------------------
  System                54.25    806.74   1320.19      17.628
  
  
  ********************
  Link Flow Summary
  ********************
  
  -----------------------------------------------------------------------------
                                 Maximum  Time of Max   Maximum    Max/    Max/
                                  |Flow|   Occurrence   |Veloc|    Full    Full
  Link                 Type          LPS  days hr:min     m/sec    Flow   Depth
  -----------------------------------------------------------------------------
  WS02003066WSF200     CONDUIT    579.07     0  02:28      2.80    0.10    0.24
  WS02006287WS02006284 CONDUIT    325.47     0  02:14      1.89    0.15    0.27
  WS02006284WS02006280 CONDUIT    325.59     0  02:14      2.13    0.14    0.25
  WS02006280WS02006229 CONDUIT    325.60     0  02:14      3.43    0.07    0.18
  WS02006229WS02006228 CONDUIT    586.18     0  02:18      1.17    1.94    1.00
  WS02006256WS02006235 CONDUIT    166.25     0  00:01      2.58    1.76    1.00
  WS02006253WS02006251 CONDUIT     70.89     0  02:16      0.58    0.21    0.94
  WS02006252WS02006251 CONDUIT    400.41     0  02:40      3.19    1.47    1.00
  WS02006251WS02006249 CONDUIT    436.25     0  02:41      1.22    1.26    0.91
  WS02006249WS02006248 CONDUIT    353.64     0  04:50      1.23    1.94    0.86
  WS02006248WS02006247 CONDUIT    347.94     0  02:40      1.19    0.76    0.91
  WS02006247WS02006245 CONDUIT    343.80     0  02:41      1.16    2.73    0.95
  WS02006245WS02006243 CONDUIT    340.19     0  03:11      1.21    1.01    0.97
  WS02006243WS02006242 CONDUIT    338.77     0  03:11      1.01    0.72    1.00
  WS02006242WS02006240 CONDUIT    334.54     0  03:11      0.93    1.33    1.00
  WS02006240WS02006239 CONDUIT    333.26     0  03:12      0.98    1.05    1.00
  WS02006239WS02006238 CONDUIT    328.75     0  03:12      0.90    1.05    1.00
  WS02006238WS02006235 CONDUIT    327.97     0  03:12      1.25    0.73    1.00
  WS02006235WS02006234 CONDUIT    391.61     0  04:11      1.04    4.13    1.00
  WS02006234WS02006232 CONDUIT    389.96     0  04:11      1.13    0.79    1.00
  WS02006232WS02006231 CONDUIT    389.97     0  04:11      1.06    0.82    1.00
  WS02006231WS02006230 CONDUIT    389.11     0  04:12      1.35    5.90    0.99
  WS02006230WS02006229 CONDUIT    399.14     0  04:12      1.04    8.88    1.00
  WS02006228WS02006109 CONDUIT    586.20     0  02:18      1.17    2.56    1.00
  WS02006116WS02004401 CONDUIT    586.97     0  02:23      0.83    0.81    0.88
  WS02006115WS02006116 CONDUIT    591.32     0  02:22      0.94    0.76    0.80
  WS02006113WS02006111 CONDUIT    612.86     0  02:19      2.54    0.73    0.48
  WS02006112WS02006115 CONDUIT    607.40     0  02:22      0.84    0.36    0.89
  WS02006111WS02006112 CONDUIT    592.60     0  02:19      1.62    0.28    0.68
  WS02006110WS02006113 CONDUIT    588.66     0  02:19      1.37    0.54    0.80
  WS02006109WS02006110 CONDUIT    587.38     0  02:18      1.17    1.13    1.00
  WS02004411WS02004412 CONDUIT    579.63     0  02:27      0.96    0.82    0.72
  WS02004401WS02004402 CONDUIT    586.19     0  02:24      0.79    0.70    0.90
  WS02004413WS02003067 CONDUIT    578.79     0  02:28      1.16    0.25    0.61
  WS02004412WS02004413 CONDUIT    579.11     0  02:27      0.86    0.39    0.80
  WS02004410WS02004411 CONDUIT    580.67     0  02:26      0.97    0.79    0.71
  WS02004409WS02004410 CONDUIT    582.39     0  02:26      1.02    0.75    0.70
  WS02004407WS02004409 CONDUIT    585.14     0  02:26      1.55    0.21    0.50
  WS02004406WS02004407 CONDUIT    585.42     0  02:26      1.09    0.26    0.65
  WS02004405WS02004406 CONDUIT    585.92     0  02:25      0.75    1.16    0.98
  WS02004404WS02004405 CONDUIT    585.81     0  02:25      0.84    5.74    0.99
  WS02004403WS02004404 CONDUIT    585.66     0  02:25      0.76    0.42    0.96
  WS02004402WS02004403 CONDUIT    585.84     0  02:25      0.77    0.84    0.92
  WS02004139WS02001211 CONDUIT    373.77     0  04:10      0.81    0.47    0.57
  WS02004138WS02004139 CONDUIT    379.20     0  04:10      3.33    0.08    0.43
  WS02003067WS02003066 CONDUIT    579.01     0  02:28      1.26    0.19    0.43
  WS02001213WS02003059 CONDUIT    373.69     0  04:11      0.80    0.62    0.73
  WS02001212WS02001213 CONDUIT    375.01     0  04:11      1.19    0.58    0.43
  WS02001211WS02001212 CONDUIT    376.70     0  04:11      0.74    0.29    0.62
  WS02003072WS02003073 CONDUIT    826.20     0  02:58      1.65    1.78    0.45
  WS02003069WS02003072 CONDUIT    826.21     0  02:58      1.56    0.40    0.48
  WS02003060WS02003069 CONDUIT    826.02     0  02:57      1.81    0.32    0.42
  WS02003059WS02003060 CONDUIT    371.99     0  04:12      0.82    0.24    0.62
  HS02004901HS02004770 CONDUIT     16.74     0  02:11      0.06    0.06    0.38
  HS02004876HS02004881 CONDUIT     57.45     0  02:14      0.83    0.61    0.10
  HS02004870HS02004876 CONDUIT     45.69     0  02:15      0.57    0.03    0.12
  HS02004842HS02004848 CONDUIT      7.73     0  02:26      0.04    0.00    0.29
  HS02004837HS02004842 CONDUIT      8.03     0  02:27      0.41    0.00    0.30
  HS02004830HS02004837 CONDUIT     33.19     0  02:14      0.51    0.03    0.09
  HS02004824HS02004830 CONDUIT     33.34     0  02:15      0.55    0.04    0.09
  HS02004817HS02004824 CONDUIT     57.10     0  02:18      0.19    0.03    0.44
  HS02004770HS02004777 CONDUIT     85.06     0  02:10      0.31    0.16    0.40
  HS02004799HS02004480 CONDUIT    209.37     0  02:12      0.75    0.26    0.40
  HS02004792HS02004799 CONDUIT    191.28     0  02:12      0.86    0.12    0.32
  HS02004788HS02004792 CONDUIT    111.14     0  02:13      0.98    0.07    0.16
  HS02004785HS02004788 CONDUIT     84.61     0  02:12      0.64    0.64    0.19
  HS02004777HS02004785 CONDUIT     84.56     0  02:12      0.37    0.10    0.33
  HS02004480HS02004478 CONDUIT    247.36     0  02:13      1.16    1.04    0.30
  HS02004479HS02004480 CONDUIT     38.86     0  02:15      0.15    0.04    0.39
  HS02004862HS02004870 CONDUIT     33.69     0  02:15      0.57    0.04    0.08
  HS02004848HS02004852 CONDUIT     14.38     0  02:15      0.39    0.02    0.05
  HS02004856HS02004862 CONDUIT     23.25     0  02:15      0.42    0.02    0.08
  HS02004852HS02004856 CONDUIT     14.34     0  02:16      0.19    0.02    0.11
  HS02004802HS02004478 CONDUIT     81.01     0  02:17      0.37    0.07    0.32
  HS02004478WS02006287 CONDUIT    325.39     0  02:14      1.59    0.09    0.23
  HS02004817HS02004807 CONDUIT     58.69     0  02:19      0.15    0.03    0.58
  HS02004807HS02004802 CONDUIT     80.31     0  02:17      0.32    0.15    0.37
  YS02001759YS02001757 CONDUIT    341.67     0  02:54      0.44    0.24    1.00
  YS02001762YS02001759 CONDUIT    186.13     0  02:54      0.24    0.21    1.00
  YS02001765YS02001762 CONDUIT    183.42     0  02:51      0.23    0.17    1.00
  YS02001770YS02001767 CONDUIT    181.89     0  02:54      0.32    0.72    1.00
  YS02001774YS02001770 CONDUIT     59.85     0  02:11      0.14    0.04    1.00
  YS02001779YS02001774 CONDUIT     37.36     0  02:52      0.09    0.02    1.00
  YS02001649YS02001757 CONDUIT    572.90     0  02:29      0.73    0.35    1.00
  YS02001767YS02001765 CONDUIT    182.96     0  02:51      0.26    0.23    1.00
  YS02006561YS02001783 CONDUIT    569.52     0  02:46      2.03    0.29    0.69
  YS02001783YS02001784 CONDUIT    560.91     0  02:46      1.47    0.77    1.00
  YS02001784YS02001785 CONDUIT    560.55     0  02:38      1.57    1.30    1.00
  YS02001788YS02001790 CONDUIT    565.58     0  03:00      2.11    0.42    1.00
  YS02001790YS02001791 CONDUIT    565.71     0  03:00      2.50    0.62    1.00
  YS02001791YS02001793 CONDUIT    800.37     0  02:32      5.01    0.34    1.00
  YS02001910YS02001907 CONDUIT    188.31     0  02:53      0.49    0.11    0.89
  YS02001786YS02001788 CONDUIT    564.97     0  02:38      2.05    1.09    1.00
  YS02001915YS02001910 CONDUIT    190.76     0  02:53      0.45    0.09    0.68
  YS02001918YS02001915 CONDUIT     62.62     0  02:53      0.44    0.03    0.40
  YS02001923YS02001920 CONDUIT     54.30     0  03:01      0.55    0.02    0.20
  YS02001926YS02001923 CONDUIT     54.27     0  03:01      0.61    0.08    0.17
  YS02001929YS02001926 CONDUIT     54.29     0  03:01      0.66    0.03    0.16
  YS02001920YS02001918 CONDUIT     59.29     0  02:53      0.55    0.06    0.26
  YS02001629YS02163301 CONDUIT    168.29     0  02:30      0.22    0.21    1.00
  YS02001619YS02001622 CONDUIT    166.73     0  02:57      0.75    0.25    1.00
  YS02001622YS02001625 CONDUIT    219.52     0  02:56      0.31    0.12    1.00
  YS02001625YS02001629 CONDUIT    218.02     0  02:56      0.31    0.10    1.00
  YS02163301YS02001633 CONDUIT    174.18     0  02:30      0.22    0.16    1.00
  YS02163601YS02164001 CONDUIT    285.71     0  02:30      0.36    0.25    1.00
  YS02164001YS02001641 CONDUIT    281.80     0  02:30      0.36    0.38    1.00
  YS02001641YS02001644 CONDUIT    283.57     0  02:30      0.36    0.92    1.00
  YS02001647YS02001649 CONDUIT    421.03     0  02:29      0.54    0.22    1.00
  YS02006553YS02006556 CONDUIT    401.15     0  02:54      0.52    0.34    0.97
  YS02006556YS02006558 CONDUIT    406.52     0  02:46      0.52    0.32    0.99
  YSB6556YSB1171       CONDUIT     21.09     0  02:15      0.08    0.02    0.66
  YS02001907YS02006553 CONDUIT    398.88     0  02:54      0.44    0.47    1.00
  YS02006558YS02006561 CONDUIT    602.23     0  02:46      3.01    1.33    0.68
  YS02001633YS02163601 CONDUIT    286.96     0  02:30      0.37    0.30    1.00
  YS02001644YS02001647 CONDUIT    395.07     0  02:30      0.52    0.23    1.00
  YS02001745YS02001748 CONDUIT    362.23     0  03:39      1.57    0.14    0.91
  YS02001748YS02001751 CONDUIT    355.50     0  03:12      1.22    0.18    1.00
  YS02001751YS02001754 CONDUIT    208.32     0  02:51      1.05    0.10    1.00
  YS02001754YS02001757 CONDUIT    217.41     0  02:51      0.33    0.09    1.00
  YS02001882YS02001884 CONDUIT     10.24     0  02:49      0.06    0.01    0.62
  YS02001884YS02001887 CONDUIT     17.24     0  02:09      0.07    0.02    0.71
  YS02001890YS02001895 CONDUIT    208.65     0  02:46      0.38    0.10    0.68
  YS02001895YS02001898 CONDUIT    213.55     0  02:50      0.52    0.37    0.54
  YS02001898YS02001901 CONDUIT    216.87     0  02:47      0.43    0.14    0.62
  YS02001901YS02001904 CONDUIT    221.26     0  02:47      0.40    0.34    0.67
  YS02001904YS02001907 CONDUIT    229.62     0  02:53      0.33    0.08    0.83
  YS02001887YS02001890 CONDUIT    211.56     0  02:50      0.33    0.36    0.77
  YS02001652YS02001649 CONDUIT    235.84     0  02:51      0.36    0.12    1.00
  YS02001655YS02001652 CONDUIT    230.80     0  02:51      1.12    0.11    1.00
  YS02001658YS02001655 CONDUIT    386.49     0  02:51      1.41    0.16    1.00
  YS02001661YS02001658 CONDUIT    417.01     0  03:32      1.65    0.16    0.98
  YS02001664YS02001661 CONDUIT    333.82     0  04:37      1.41    0.10    0.68
  YSB1154YSB6556       CONDUIT     20.69     0  02:14      0.19    0.04    0.55
  YSB1174YSB1171       CONDUIT     18.77     0  02:08      0.07    0.03    0.66
  YSB1171HS02004479    CONDUIT     38.52     0  02:14      0.54    0.03    0.52
  HS02004881HS02006253 CONDUIT     64.10     0  02:14      2.01    0.01    0.26
  YS02001793JiankangQianchi CONDUIT   1095.95     0  02:32     12.26    0.09    1.00
  YS02001757CaochengTiaoxuchi CONDUIT    994.68     0  02:29      2.22    0.44    1.00
  WSF200WS02003060     CONDUIT    578.96     0  02:28      1.83    0.13    0.33
  1                    CONDUIT    828.01     0  02:59      3.16    0.29    0.37
  2                    CONDUIT    143.70     0  02:46      5.35    0.34    0.40
  3                    CONDUIT    499.59     0  04:09      9.79    0.80    0.68
  4                    CONDUIT      0.00     0  00:00      0.00    0.00    0.00
  CC-Pump-1            PUMP       200.00     0  02:40              1.00
  CC-Pump-2            PUMP       200.00     0  02:14              1.00
  JK-Pump-1            PUMP       300.00     0  00:00              1.00
  JK-Pump-2            PUMP       300.00     0  04:00              1.00
  XR-Pump-1            PUMP        95.00     0  00:00              1.00
  XR-Pump-2            PUMP        95.00     0  00:00              1.00
  XR-Pump-3            PUMP        95.00     0  00:00              1.00
  XR-Pump-4            PUMP        95.00     0  00:50              1.00
  
  
  ***************************
  Flow Classification Summary
  ***************************
  
  -------------------------------------------------------------------------------------
                      Adjusted    ---------- Fraction of Time in Flow Class ---------- 
                       /Actual         Up    Down  Sub   Sup   Up    Down  Norm  Inlet 
  Conduit               Length    Dry  Dry   Dry   Crit  Crit  Crit  Crit  Ltd   Ctrl  
  -------------------------------------------------------------------------------------
  WS02003066WSF200        1.00   0.06  0.00  0.00  0.00  0.94  0.00  0.00  0.68  0.00
  WS02006287WS02006284    1.00   0.04  0.01  0.00  0.68  0.26  0.00  0.00  0.76  0.00
  WS02006284WS02006280    1.00   0.05  0.00  0.00  0.00  0.00  0.00  0.95  0.00  0.00
  WS02006280WS02006229    1.00   0.05  0.00  0.00  0.00  0.00  0.00  0.95  0.00  0.00
  WS02006229WS02006228    1.00   0.00  0.00  0.00  0.99  0.00  0.00  0.01  0.00  0.00
  WS02006256WS02006235    1.00   0.00  0.00  0.00  1.00  0.00  0.00  0.00  0.00  0.00
  WS02006253WS02006251    1.00   0.03  0.01  0.00  0.96  0.00  0.00  0.00  0.00  0.00
  WS02006252WS02006251    1.00   0.08  0.00  0.00  0.00  0.00  0.92  0.00  0.00  0.00
  WS02006251WS02006249    1.00   0.00  0.00  0.00  1.00  0.00  0.00  0.00  0.25  0.00
  WS02006249WS02006248    1.00   0.00  0.02  0.00  0.92  0.00  0.06  0.00  0.00  0.00
  WS02006248WS02006247    1.00   0.02  0.00  0.00  0.98  0.00  0.00  0.00  0.14  0.00
  WS02006247WS02006245    1.00   0.02  0.00  0.00  0.98  0.00  0.00  0.00  0.00  0.00
  WS02006245WS02006243    1.00   0.01  0.00  0.00  0.94  0.00  0.00  0.04  0.01  0.00
  WS02006243WS02006242    1.00   0.01  0.00  0.00  0.99  0.00  0.00  0.00  0.25  0.00
  WS02006242WS02006240    1.00   0.00  0.00  0.00  1.00  0.00  0.00  0.00  0.00  0.00
  WS02006240WS02006239    1.00   0.00  0.00  0.00  0.96  0.00  0.00  0.04  0.01  0.00
  WS02006239WS02006238    1.00   0.00  0.00  0.00  1.00  0.00  0.00  0.00  0.00  0.00
  WS02006238WS02006235    1.00   0.00  0.00  0.00  1.00  0.00  0.00  0.00  0.00  0.00
  WS02006235WS02006234    1.00   0.00  0.00  0.00  0.95  0.00  0.05  0.00  0.00  0.00
  WS02006234WS02006232    1.00   0.00  0.00  0.00  1.00  0.00  0.00  0.00  0.04  0.00
  WS02006232WS02006231    1.00   0.00  0.00  0.00  0.99  0.00  0.00  0.00  0.00  0.00
  WS02006231WS02006230    1.00   0.00  0.00  0.00  0.66  0.00  0.34  0.00  0.00  0.00
  WS02006230WS02006229    1.00   0.00  0.00  0.00  0.98  0.00  0.00  0.02  0.00  0.00
  WS02006228WS02006109    1.00   0.00  0.00  0.00  1.00  0.00  0.00  0.00  0.00  0.00
  WS02006116WS02004401    1.00   0.03  0.00  0.00  0.97  0.00  0.00  0.00  0.00  0.00
  WS02006115WS02006116    1.00   0.03  0.00  0.00  0.97  0.00  0.00  0.01  0.00  0.00
  WS02006113WS02006111    1.00   0.02  0.00  0.00  0.00  0.98  0.00  0.00  0.11  0.00
  WS02006112WS02006115    1.00   0.02  0.00  0.00  0.97  0.00  0.00  0.00  0.00  0.00
  WS02006111WS02006112    1.00   0.02  0.00  0.00  0.97  0.00  0.00  0.00  0.98  0.00
  WS02006110WS02006113    1.00   0.01  0.01  0.00  0.98  0.00  0.00  0.00  0.00  0.00
  WS02006109WS02006110    1.00   0.00  0.01  0.00  0.98  0.00  0.01  0.00  0.00  0.00
  WS02004411WS02004412    1.00   0.04  0.00  0.00  0.96  0.00  0.00  0.00  0.00  0.00
  WS02004401WS02004402    1.00   0.03  0.00  0.00  0.97  0.00  0.00  0.00  0.00  0.00
  WS02004413WS02003067    1.00   0.04  0.01  0.00  0.00  0.00  0.95  0.00  0.00  0.00
  WS02004412WS02004413    1.00   0.04  0.00  0.00  0.96  0.00  0.00  0.00  0.03  0.00
  WS02004410WS02004411    1.00   0.04  0.00  0.00  0.96  0.00  0.00  0.00  0.04  0.00
  WS02004409WS02004410    1.00   0.04  0.00  0.00  0.96  0.00  0.00  0.00  0.04  0.00
  WS02004407WS02004409    1.00   0.04  0.00  0.00  0.96  0.00  0.00  0.00  0.89  0.00
  WS02004406WS02004407    1.00   0.00  0.04  0.00  0.96  0.00  0.00  0.00  0.00  0.00
  WS02004405WS02004406    1.00   0.00  0.00  0.00  1.00  0.00  0.00  0.00  0.01  0.00
  WS02004404WS02004405    1.00   0.00  0.00  0.00  1.00  0.00  0.00  0.00  0.00  0.00
  WS02004403WS02004404    1.00   0.00  0.03  0.00  0.97  0.00  0.00  0.00  0.01  0.00
  WS02004402WS02004403    1.00   0.03  0.00  0.00  0.97  0.00  0.00  0.00  0.00  0.00
  WS02004139WS02001211    1.00   0.00  0.00  0.00  1.00  0.00  0.00  0.00  0.00  0.00
  WS02004138WS02004139    1.00   0.00  0.00  0.00  0.99  0.01  0.00  0.00  1.00  0.00
  WS02003067WS02003066    1.00   0.05  0.00  0.00  0.94  0.00  0.00  0.00  0.00  0.00
  WS02001213WS02003059    1.00   0.00  0.00  0.00  0.99  0.00  0.00  0.00  0.00  0.00
  WS02001212WS02001213    1.00   0.00  0.00  0.00  0.86  0.00  0.13  0.00  0.00  0.00
  WS02001211WS02001212    1.00   0.00  0.00  0.00  1.00  0.00  0.00  0.00  0.00  0.00
  WS02003072WS02003073    1.00   0.00  0.00  0.00  0.00  0.00  0.00  1.00  0.00  0.00
  WS02003069WS02003072    1.00   0.00  0.00  0.00  0.99  0.01  0.00  0.00  0.27  0.00
  WS02003060WS02003069    1.00   0.00  0.00  0.00  0.98  0.02  0.00  0.00  0.11  0.00
  WS02003059WS02003060    1.00   0.00  0.00  0.00  1.00  0.00  0.00  0.00  0.01  0.00
  HS02004901HS02004770    1.00   0.04  0.00  0.00  0.96  0.00  0.00  0.00  0.02  0.00
  HS02004876HS02004881    1.00   0.02  0.00  0.00  0.96  0.02  0.00  0.00  0.00  0.00
  HS02004870HS02004876    1.00   0.01  0.00  0.00  0.99  0.00  0.00  0.00  0.95  0.00
  HS02004842HS02004848    1.00   0.00  0.05  0.00  0.95  0.00  0.00  0.00  0.67  0.00
  HS02004837HS02004842    1.00   0.00  0.00  0.00  0.99  0.01  0.00  0.00  0.11  0.00
  HS02004830HS02004837    1.00   0.00  0.00  0.00  1.00  0.00  0.00  0.00  0.99  0.00
  HS02004824HS02004830    1.00   0.00  0.00  0.00  1.00  0.00  0.00  0.00  0.00  0.00
  HS02004817HS02004824    1.00   0.00  0.00  0.00  1.00  0.00  0.00  0.00  1.00  0.00
  HS02004770HS02004777    1.00   0.00  0.04  0.00  0.96  0.00  0.00  0.00  0.07  0.00
  HS02004799HS02004480    1.00   0.00  0.03  0.00  0.94  0.00  0.03  0.00  0.00  0.00
  HS02004792HS02004799    1.00   0.00  0.00  0.00  0.99  0.01  0.00  0.00  0.98  0.00
  HS02004788HS02004792    1.00   0.00  0.00  0.00  0.99  0.01  0.00  0.00  0.98  0.00
  HS02004785HS02004788    1.00   0.00  0.00  0.00  1.00  0.00  0.00  0.00  0.00  0.00
  HS02004777HS02004785    1.00   0.00  0.00  0.00  1.00  0.00  0.00  0.00  0.20  0.00
  HS02004480HS02004478    1.00   0.05  0.00  0.00  0.74  0.00  0.00  0.21  0.00  0.00
  HS02004479HS02004480    1.00   0.03  0.00  0.00  0.97  0.00  0.00  0.00  0.15  0.00
  HS02004862HS02004870    1.00   0.00  0.00  0.00  1.00  0.00  0.00  0.00  0.06  0.00
  HS02004848HS02004852    1.00   0.05  0.00  0.00  0.95  0.00  0.00  0.00  0.71  0.00
  HS02004856HS02004862    1.00   0.00  0.07  0.00  0.93  0.00  0.00  0.00  0.75  0.00
  HS02004852HS02004856    1.00   0.04  0.01  0.00  0.95  0.00  0.00  0.00  0.83  0.00
  HS02004802HS02004478    1.00   0.05  0.00  0.00  0.95  0.00  0.00  0.00  0.01  0.00
  HS02004478WS02006287    1.00   0.05  0.00  0.00  0.83  0.11  0.00  0.00  0.73  0.00
  HS02004817HS02004807    1.00   0.00  0.05  0.00  0.95  0.00  0.00  0.00  0.00  0.00
  HS02004807HS02004802    1.00   0.05  0.00  0.00  0.95  0.00  0.00  0.00  0.01  0.00
  YS02001759YS02001757    1.00   0.00  0.00  0.00  1.00  0.00  0.00  0.00  0.17  0.00
  YS02001762YS02001759    1.00   0.00  0.00  0.00  1.00  0.00  0.00  0.00  0.04  0.00
  YS02001765YS02001762    1.00   0.00  0.00  0.00  1.00  0.00  0.00  0.00  0.21  0.00
  YS02001770YS02001767    1.00   0.00  0.00  0.00  1.00  0.00  0.00  0.00  0.00  0.00
  YS02001774YS02001770    1.00   0.00  0.05  0.00  0.95  0.00  0.00  0.00  0.06  0.00
  YS02001779YS02001774    1.00   0.00  0.00  0.00  1.00  0.00  0.00  0.00  0.25  0.00
  YS02001649YS02001757    1.00   0.00  0.00  0.00  1.00  0.00  0.00  0.00  0.19  0.00
  YS02001767YS02001765    1.00   0.00  0.00  0.00  1.00  0.00  0.00  0.00  0.01  0.00
  YS02006561YS02001783    1.00   0.07  0.00  0.00  0.22  0.72  0.00  0.00  0.69  0.00
  YS02001783YS02001784    1.00   0.00  0.07  0.00  0.93  0.00  0.00  0.00  0.00  0.00
  YS02001784YS02001785    1.00   0.00  0.00  0.00  1.00  0.00  0.00  0.00  0.24  0.00
  YS02001788YS02001790    1.00   0.00  0.00  0.00  0.30  0.70  0.00  0.00  0.67  0.00
  YS02001790YS02001791    1.00   0.00  0.00  0.00  0.25  0.75  0.00  0.00  0.48  0.00
  YS02001791YS02001793    1.00   0.00  0.00  0.00  0.25  0.75  0.00  0.00  0.01  0.00
  YS02001910YS02001907    1.00   0.00  0.00  0.00  0.97  0.00  0.00  0.02  0.13  0.00
  YS02001786YS02001788    1.00   0.00  0.00  0.00  0.29  0.71  0.00  0.00  0.00  0.00
  YS02001915YS02001910    1.00   0.00  0.00  0.00  0.99  0.01  0.00  0.00  0.23  0.00
  YS02001918YS02001915    1.00   0.00  0.01  0.00  0.98  0.01  0.00  0.00  0.66  0.00
  YS02001923YS02001920    1.00   0.00  0.00  0.00  1.00  0.00  0.00  0.00  1.00  0.00
  YS02001926YS02001923    1.00   0.00  0.03  0.00  0.00  0.00  0.97  0.00  0.00  0.00
  YS02001929YS02001926    1.00   0.00  0.04  0.00  0.96  0.00  0.00  0.00  0.87  0.00
  YS02001920YS02001918    1.00   0.00  0.01  0.00  0.99  0.00  0.00  0.00  0.00  0.00
  YS02001629YS02163301    1.00   0.06  0.00  0.00  0.94  0.00  0.00  0.00  0.00  0.00
  YS02001619YS02001622    1.00   0.04  0.00  0.00  0.96  0.00  0.00  0.00  0.00  0.00
  YS02001622YS02001625    1.00   0.05  0.00  0.00  0.95  0.00  0.00  0.00  0.12  0.00
  YS02001625YS02001629    1.00   0.05  0.02  0.00  0.92  0.00  0.01  0.00  0.00  0.00
  YS02163301YS02001633    1.00   0.00  0.06  0.00  0.94  0.00  0.00  0.00  0.00  0.00
  YS02163601YS02164001    1.00   0.00  0.04  0.00  0.96  0.00  0.00  0.00  0.00  0.00
  YS02164001YS02001641    1.00   0.01  0.03  0.00  0.96  0.00  0.00  0.00  0.07  0.00
  YS02001641YS02001644    1.00   0.00  0.01  0.00  0.99  0.00  0.00  0.00  0.00  0.00
  YS02001647YS02001649    1.00   0.00  0.07  0.00  0.93  0.00  0.00  0.00  0.01  0.00
  YS02006553YS02006556    1.00   0.01  0.00  0.00  0.99  0.00  0.00  0.00  0.03  0.00
  YS02006556YS02006558    1.00   0.00  0.00  0.00  1.00  0.00  0.00  0.00  0.00  0.00
  YSB6556YSB1171          1.00   0.03  0.01  0.00  0.96  0.00  0.00  0.00  0.00  0.00
  YS02001907YS02006553    1.00   0.00  0.02  0.00  0.98  0.00  0.00  0.00  0.00  0.00
  YS02006558YS02006561    1.00   0.07  0.00  0.00  0.00  0.93  0.00  0.00  0.58  0.00
  YS02001633YS02163601    1.00   0.00  0.01  0.00  0.99  0.00  0.00  0.00  0.19  0.00
  YS02001644YS02001647    1.00   0.00  0.07  0.00  0.93  0.00  0.00  0.00  0.00  0.00
  YS02001745YS02001748    1.00   0.00  0.00  0.00  0.89  0.00  0.00  0.10  0.05  0.00
  YS02001748YS02001751    1.00   0.00  0.00  0.00  0.98  0.02  0.00  0.00  0.22  0.00
  YS02001751YS02001754    1.00   0.00  0.00  0.00  0.93  0.00  0.00  0.07  0.01  0.00
  YS02001754YS02001757    1.00   0.00  0.00  0.00  0.99  0.01  0.00  0.00  0.25  0.00
  YS02001882YS02001884    1.00   0.06  0.00  0.00  0.94  0.00  0.00  0.00  0.00  0.00
  YS02001884YS02001887    1.00   0.03  0.01  0.00  0.96  0.00  0.00  0.00  0.00  0.00
  YS02001890YS02001895    1.00   0.00  0.06  0.00  0.94  0.00  0.00  0.00  0.00  0.00
  YS02001895YS02001898    1.00   0.06  0.00  0.00  0.93  0.00  0.01  0.00  0.00  0.00
  YS02001898YS02001901    1.00   0.06  0.00  0.00  0.94  0.00  0.00  0.00  0.02  0.00
  YS02001901YS02001904    1.00   0.06  0.00  0.00  0.94  0.00  0.00  0.00  0.00  0.00
  YS02001904YS02001907    1.00   0.00  0.06  0.00  0.94  0.00  0.00  0.00  0.00  0.00
  YS02001887YS02001890    1.00   0.00  0.00  0.00  0.97  0.00  0.02  0.00  0.00  0.00
  YS02001652YS02001649    1.00   0.00  0.00  0.00  1.00  0.00  0.00  0.00  0.25  0.00
  YS02001655YS02001652    1.00   0.00  0.00  0.00  0.93  0.00  0.00  0.07  0.01  0.00
  YS02001658YS02001655    1.00   0.00  0.05  0.00  0.92  0.02  0.00  0.00  0.07  0.00
  YS02001661YS02001658    1.00   0.05  0.00  0.00  0.89  0.05  0.00  0.00  0.06  0.00
  YS02001664YS02001661    1.00   0.04  0.00  0.00  0.85  0.10  0.00  0.00  0.33  0.00
  YSB1154YSB6556          1.00   0.04  0.00  0.00  0.96  0.00  0.00  0.00  0.02  0.00
  YSB1174YSB1171          1.00   0.03  0.01  0.00  0.96  0.00  0.00  0.00  0.00  0.00
  YSB1171HS02004479       1.00   0.03  0.00  0.00  0.97  0.00  0.00  0.00  0.13  0.00
  HS02004881HS02006253    1.00   0.03  0.00  0.00  0.79  0.02  0.00  0.16  0.61  0.00
  YS02001793JiankangQianchi    1.00   0.00  0.00  0.00  0.43  0.57  0.00  0.00  0.16  0.00
  YS02001757CaochengTiaoxuchi    1.00   0.00  0.08  0.00  0.92  0.01  0.00  0.00  0.00  0.00
  WSF200WS02003060        1.00   0.00  0.06  0.00  0.71  0.23  0.00  0.00  0.18  0.00
  1                       1.00   0.00  0.00  0.00  0.00  1.00  0.00  0.00  0.35  0.00
  2                       1.00   0.61  0.00  0.00  0.00  0.39  0.00  0.00  0.09  0.00
  3                       1.00   0.21  0.00  0.00  0.00  0.79  0.00  0.00  0.38  0.00
  4                       1.00   1.00  0.00  0.00  0.00  0.00  0.00  0.00  0.00  0.00
  
  
  *************************
  Conduit Surcharge Summary
  *************************
  
  ----------------------------------------------------------------------------
                                                           Hours        Hours 
                         --------- Hours Full --------   Above Full   Capacity
  Conduit                Both Ends  Upstream  Dnstream   Normal Flow   Limited
  ----------------------------------------------------------------------------
  WS02006229WS02006228        1.92      2.21      1.92      4.40         1.92
  WS02006256WS02006235        5.78      5.79      7.60      2.31         0.01
  WS02006252WS02006251        1.26      1.26      2.40      2.10         0.01
  WS02006251WS02006249        0.01      0.01      0.01      1.28         0.01
  WS02006249WS02006248        0.01      0.01      0.01      4.34         0.01
  WS02006247WS02006245        0.01      0.01      0.01      4.82         0.01
  WS02006245WS02006243        0.01      0.01      0.01      0.04         0.01
  WS02006243WS02006242        0.01      0.01      1.11      0.01         0.01
  WS02006242WS02006240        0.19      0.19      1.56      2.42         0.01
  WS02006240WS02006239        0.21      0.21      0.37      0.08         0.01
  WS02006239WS02006238        1.43      1.43      1.57      0.12         0.04
  WS02006238WS02006235        1.42      1.42      2.00      0.01         0.01
  WS02006235WS02006234        0.35      0.35      1.20      5.80         0.01
  WS02006234WS02006232        0.43      0.43      2.17      0.01         0.01
  WS02006232WS02006231        0.08      0.08      2.17      0.01         0.01
  WS02006231WS02006230        0.01      0.01      0.12      5.79         0.01
  WS02006230WS02006229        3.52      3.92      3.52      5.88         3.52
  WS02006228WS02006109        2.07      2.94      2.07      5.30         2.07
  WS02006112WS02006115        0.01      0.01      0.60      0.01         0.01
  WS02006111WS02006112        0.01      0.01      4.56      0.01         0.01
  WS02006110WS02006113        0.01      0.01      2.58      0.01         0.01
  WS02006109WS02006110        0.32      0.32      2.95      0.32         0.01
  WS02004405WS02004406        0.01      0.01      0.01      0.48         0.01
  WS02004404WS02004405        0.01      0.01      0.01      5.69         0.01
  WS02003072WS02003073        0.01      0.01      0.01      5.17         0.01
  HS02004480HS02004478        0.01      0.01      0.01      0.11         0.01
  YS02001759YS02001757        5.49      5.49      5.53      0.01         0.01
  YS02001762YS02001759        5.47      5.47      5.49      0.01         0.01
  YS02001765YS02001762        5.45      5.45      5.47      0.01         0.01
  YS02001770YS02001767        5.41      5.41      5.42      0.01         0.77
  YS02001774YS02001770        5.35      5.35      5.47      0.01         0.01
  YS02001779YS02001774        5.08      5.08      5.47      0.01         0.01
  YS02001649YS02001757        5.47      5.47      5.53      0.01         0.01
  YS02001767YS02001765        5.42      5.42      5.45      0.01         0.01
  YS02006561YS02001783        0.01      0.01      0.01      0.01         0.01
  YS02001783YS02001784        0.01      0.01      0.02      0.01         0.01
  YS02001784YS02001785        0.01      0.02      0.01      0.94         0.01
  YS02001788YS02001790        0.01      0.01      1.33      0.01         0.01
  YS02001790YS02001791        1.33      1.33      1.37      0.01         0.01
  YS02001791YS02001793        1.37      1.37      1.47      0.01         0.01
  YS02001786YS02001788        0.01      0.01      0.01      0.42         0.01
  YS02001629YS02163301        5.36      5.36      5.40      0.01         0.01
  YS02001619YS02001622        4.40      4.40      4.47      0.01         0.01
  YS02001622YS02001625        4.47      4.47      5.26      0.01         0.01
  YS02001625YS02001629        4.44      4.44      5.26      0.01         0.01
  YS02163301YS02001633        5.40      5.40      5.45      0.01         0.01
  YS02163601YS02164001        5.44      5.44      5.47      0.01         0.01
  YS02164001YS02001641        5.44      5.44      5.46      0.01         0.02
  YS02001641YS02001644        5.46      5.46      5.46      0.01         1.13
  YS02001647YS02001649        5.24      5.24      5.47      0.01         0.01
  YS02006553YS02006556        0.01      0.01      0.07      0.01         0.01
  YS02006556YS02006558        0.01      0.01      0.28      0.01         0.01
  YS02001907YS02006553        0.99      0.99      1.19      0.01         0.01
  YS02006558YS02006561        0.01      0.01      0.01      0.82         0.01
  YS02001633YS02163601        5.44      5.44      5.47      0.01         0.01
  YS02001644YS02001647        5.24      5.24      5.46      0.01         0.01
  YS02001745YS02001748        0.01      0.01      3.46      0.01         0.01
  YS02001748YS02001751        4.06      4.06      4.48      0.01         0.01
  YS02001751YS02001754        4.48      4.48      5.19      0.01         0.01
  YS02001754YS02001757        5.25      5.25      5.53      0.01         0.01
  YS02001904YS02001907        0.01      0.01      0.08      0.01         0.01
  YS02001652YS02001649        5.26      5.26      5.47      0.01         0.01
  YS02001655YS02001652        4.59      4.59      5.24      0.01         0.01
  YS02001658YS02001655        3.56      3.56      4.59      0.01         0.01
  YS02001661YS02001658        0.01      0.01      3.56      0.01         0.01
  YS02001664YS02001661        0.01      0.01      0.05      0.01         0.01
  YS02001793JiankangQianchi        1.45      1.45      2.22      0.01         0.01
  YS02001757CaochengTiaoxuchi        4.11      4.11      5.53      0.01         0.01
  
  
  ***************
  Pumping Summary
  ***************
  
  ---------------------------------------------------------------------------------------------------------
                                                  Min       Avg       Max     Total     Power    % Time Off
                        Percent   Number of      Flow      Flow      Flow    Volume     Usage    Pump Curve
  Pump                 Utilized   Start-Ups       LPS       LPS       LPS  10^6 ltr     Kw-hr    Low   High
  ---------------------------------------------------------------------------------------------------------
  CC-Pump-1               67.90           6      0.00    137.26    200.00     2.614      4.38    0.0    6.9
  CC-Pump-2               55.14           3      0.00    141.38    200.00     2.186      4.37    0.0   12.4
  JK-Pump-1               78.73           7      0.00    171.74    300.00     2.780     35.93    0.0    0.0
  JK-Pump-2               68.08           7      0.00    131.20    300.00     1.771     26.61    0.0    0.0
  XR-Pump-1               89.35           7      0.00     68.29     95.00     1.710     15.92    0.0    0.0
  XR-Pump-2               87.22           6      0.00     70.56     95.00     1.682     14.60    0.0    0.0
  XR-Pump-3               91.48           7      0.00     71.83     95.00     1.824     15.77    0.0    0.0
  XR-Pump-4               76.57           8      0.00     63.17     95.00     1.368     11.77    0.0    0.0
  

  Analysis begun on:  Fri Dec 24 17:31:22 2021
  Analysis ended on:  Fri Dec 24 17:31:27 2021
  Total elapsed time: 00:00:05