
  EPA STORM WATER MANAGEMENT MODEL - VERSION 5.1 (Build 5.3.0.dev0)
  --------------------------------------------------------------

  WARNING 04: minimum elevation drop used for Conduit WS02004404WS02004405
  WARNING 03: negative offset ignored for Link YS02001904YS02001907
  
  *********************************************************
  NOTE: The summary statistics displayed in this report are
  based on results found at every computational time step,  
  not just on results from each reporting time step.
  *********************************************************
  
  ****************
  Analysis Options
  ****************
  Flow Units ............... LPS
  Process Models:
    Rainfall/Runoff ........ YES
    RDII ................... NO
    Snowmelt ............... NO
    Groundwater ............ NO
    Flow Routing ........... YES
    Ponding Allowed ........ NO
    Water Quality .......... NO
  Infiltration Method ...... HORTON
  Flow Routing Method ...... DYNWAVE
  Surcharge Method ......... EXTRAN
  Starting Date ............ 08/28/2015 08:00:00
  Ending Date .............. 08/28/2015 15:50:00
  Antecedent Dry Days ...... 8.0
  Report Time Step ......... 00:01:00
  Wet Time Step ............ 00:01:00
  Dry Time Step ............ 00:01:00
  Routing Time Step ........ 5.00 sec
  Variable Time Step ....... YES
  Maximum Trials ........... 8
  Number of Threads ........ 4
  Head Tolerance ........... 0.001500 m
  
  
  **************************        Volume         Depth
  Runoff Quantity Continuity     hectare-m            mm
  **************************     ---------       -------
  Total Precipitation ......         1.841         4.030
  Evaporation Loss .........         0.000         0.000
  Infiltration Loss ........         0.453         0.992
  Surface Runoff ...........         0.594         1.301
  Final Storage ............         0.794         1.738
  Continuity Error (%) .....        -0.017
  
  
  **************************        Volume        Volume
  Flow Routing Continuity        hectare-m      10^6 ltr
  **************************     ---------     ---------
  Dry Weather Inflow .......         0.616         6.165
  Wet Weather Inflow .......         0.594         5.936
  Groundwater Inflow .......         0.000         0.000
  RDII Inflow ..............         0.000         0.000
  External Inflow ..........         0.102         1.024
  External Outflow .........         1.435        14.352
  Flooding Loss ............         0.000         0.000
  Evaporation Loss .........         0.000         0.000
  Exfiltration Loss ........         0.000         0.000
  Initial Stored Volume ....         0.076         0.761
  Final Stored Volume ......         0.129         1.289
  Continuity Error (%) .....       -12.640
  
  
  *************************
  Highest Continuity Errors
  *************************
  Node JK-storage (-39.50%)
  Node HS02004842 (37.80%)
  Node YS02001884 (31.92%)
  Node YS02001774 (18.85%)
  Node YSB1171 (11.11%)
  
  
  ***************************
  Time-Step Critical Elements
  ***************************
  Link WS02006252WS02006251 (74.14%)
  Link 3 (14.86%)
  Link WS02006238WS02006235 (3.70%)
  Link WS02006280WS02006229 (3.41%)
  
  
  ********************************
  Highest Flow Instability Indexes
  ********************************
  Link WS02006113WS02006111 (51)
  Link WS02006111WS02006112 (22)
  Link YS02001754YS02001757 (3)
  Link YS02001751YS02001754 (2)
  Link YS02001762YS02001759 (2)
  
  
  *************************
  Routing Time Step Summary
  *************************
  Minimum Time Step           :     0.50 sec
  Average Time Step           :     0.98 sec
  Maximum Time Step           :     5.00 sec
  Percent in Steady State     :    -0.00
  Average Iterations per Step :     2.03
  Percent Not Converging      :     0.04
  
  
  ***************************
  Subcatchment Runoff Summary
  ***************************
  
  ------------------------------------------------------------------------------------------------------------------------------
                            Total      Total      Total      Total     Imperv       Perv      Total       Total     Peak  Runoff
                           Precip      Runon       Evap      Infil     Runoff     Runoff     Runoff      Runoff   Runoff   Coeff
  Subcatchment                 mm         mm         mm         mm         mm         mm         mm    10^6 ltr      LPS
  ------------------------------------------------------------------------------------------------------------------------------
  sub0                       4.03       0.00       0.00       0.28       2.48       0.00       2.48        0.00     0.64   0.616
  sub1                       4.03       0.00       0.00       0.44       2.33       0.00       2.33        0.02     3.44   0.579
  sub2                       4.03       0.00       0.00       1.49       1.63       0.00       1.63        0.02     3.06   0.406
  sub3                       4.03       0.00       0.00       1.49       1.60       0.00       1.60        0.04     6.36   0.398
  sub4                       4.03       0.00       0.00       0.44       2.21       0.00       2.21        0.05     7.20   0.548
  sub5                       4.03       0.00       0.00       0.28       2.44       0.00       2.44        0.03     6.12   0.605
  sub7                       4.03       0.00       0.00       0.36       2.41       0.00       2.41        0.01     2.13   0.599
  sub8                       4.03       0.00       0.00       0.36       2.40       0.00       2.40        0.02     3.78   0.597
  sub9                       4.03       0.00       0.00       0.36       2.40       0.00       2.40        0.01     2.80   0.596
  sub10                      4.03       0.00       0.00       0.32       2.42       0.00       2.42        0.03     6.09   0.600
  sub11                      4.03       0.00       0.00       0.32       2.43       0.00       2.43        0.03     7.10   0.604
  sub12                      4.03       0.00       0.00       0.52       2.32       0.00       2.32        0.02     5.96   0.575
  sub14                      4.03       0.00       0.00       0.36       2.40       0.00       2.40        0.02     5.48   0.596
  sub15                      4.03       0.00       0.00       1.21       1.84       0.00       1.84        0.03     7.45   0.457
  sub16                      4.03       0.00       0.00       1.33       1.78       0.00       1.78        0.02     5.25   0.442
  sub17                      4.03       0.00       0.00       1.29       1.81       0.00       1.81        0.02     4.25   0.448
  sub22                      4.03       0.00       0.00       1.73       1.51       0.00       1.51        0.10    24.28   0.374
  sub23                      4.03       0.00       0.00       1.49       1.67       0.00       1.67        0.08    20.65   0.414
  sub60                      4.03       0.00       0.00       0.48       1.41       0.00       1.41        0.43    36.57   0.350
  sub61                      4.03       0.00       0.00       0.69       1.56       0.00       1.56        0.48    47.19   0.388
  sub62                      4.03       0.00       0.00       0.32       1.66       0.00       1.66        0.51    47.93   0.412
  sub63                      4.03       0.00       0.00       1.17       1.41       0.00       1.41        0.43    44.25   0.350
  sub64                      4.03       0.00       0.00       0.60       1.34       0.00       1.34        0.41    34.64   0.334
  sub65                      4.03       0.00       0.00       0.52       1.36       0.00       1.36        0.42    35.05   0.337
  sub66                      4.03       0.00       0.00       1.17       1.19       0.00       1.19        0.36    32.10   0.295
  sub67                      4.03       0.00       0.00       0.32       1.88       0.00       1.88        0.58    62.22   0.468
  sub68                      4.03       0.00       0.00       0.56       1.68       0.00       1.68        0.52    52.35   0.417
  sub69                      4.03       0.00       0.00       0.60       1.88       0.00       1.88        0.44    51.68   0.465
  sub70                      4.03       1.91       0.00       2.02       2.13       0.00       2.13        0.49    37.56   0.358
  sub71                      4.03       0.00       0.00       0.32       1.57       0.00       1.57        0.37    33.12   0.389
  sub72                      4.03       0.00       0.00       0.28       1.03       0.00       1.03        0.21    14.68   0.255
  sub73                      4.03       2.07       0.00       2.07       2.05       0.00       2.05        0.48    32.13   0.336
  sub74                      4.03       0.00       0.00       3.02       0.57       0.00       0.57        0.23    28.67   0.142
  
  
  ******************
  Node Depth Summary
  ******************
  
  ---------------------------------------------------------------------------------
                                 Average  Maximum  Maximum  Time of Max    Reported
                                   Depth    Depth      HGL   Occurrence   Max Depth
  Node                 Type       Meters   Meters   Meters  days hr:min      Meters
  ---------------------------------------------------------------------------------
  WS02001211           JUNCTION     0.67     0.78     5.62     0  03:10        0.78
  WS02001212           JUNCTION     0.39     0.49     5.56     0  03:09        0.49
  WS02001213           JUNCTION     0.62     0.74     5.50     0  03:08        0.74
  WS02003069           JUNCTION     0.42     0.55     5.13     0  03:07        0.55
  WS02003072           JUNCTION     0.49     0.61     4.98     0  03:07        0.61
  WS02003073           JUNCTION     0.29     0.37     4.44     0  03:08        0.37
  WS02003060           JUNCTION     0.38     0.48     5.42     0  03:06        0.48
  WS02003066           JUNCTION     0.22     0.28     5.83     0  03:03        0.28
  WS02003059           JUNCTION     0.68     0.79     5.48     0  03:08        0.79
  WS02003067           JUNCTION     0.55     0.67     5.99     0  03:03        0.67
  WS02004401           JUNCTION     0.63     0.79     6.79     0  02:58        0.79
  WS02004402           JUNCTION     0.66     0.82     6.78     0  02:58        0.82
  WS02004403           JUNCTION     0.68     0.84     6.77     0  02:58        0.83
  WS02004404           JUNCTION     0.76     0.91     6.76     0  02:58        0.91
  WS02004406           JUNCTION     0.77     0.91     6.74     0  02:59        0.91
  WS02004409           JUNCTION     0.45     0.61     6.38     0  03:01        0.61
  WS02004410           JUNCTION     0.47     0.62     6.34     0  03:02        0.62
  WS02004411           JUNCTION     0.49     0.64     6.32     0  03:02        0.64
  WS02004412           JUNCTION     0.51     0.65     6.29     0  03:02        0.65
  WS02004413           JUNCTION     0.67     0.81     6.28     0  03:03        0.81
  WS02004405           JUNCTION     0.76     0.90     6.75     0  02:58        0.90
  WS02006109           JUNCTION     0.70     0.89     7.51     0  02:53        0.89
  WS02006110           JUNCTION     0.71     0.87     7.45     0  02:53        0.87
  WS02006111           JUNCTION     0.20     0.27     6.97     0  02:54        0.27
  WS02006112           JUNCTION     0.79     0.97     6.85     0  02:58        0.97
  WS02006113           JUNCTION     0.31     0.42     7.31     0  02:53        0.42
  WS02006115           JUNCTION     0.52     0.68     6.82     0  02:58        0.68
  WS02006116           JUNCTION     0.60     0.76     6.80     0  02:59        0.76
  WS02006230           JUNCTION     0.65     0.92     7.66     0  02:53        0.92
  WS02006231           JUNCTION     0.44     0.62     7.74     0  02:53        0.62
  WS02006232           JUNCTION     0.57     0.76     7.80     0  02:53        0.76
  WS02006234           JUNCTION     0.48     0.71     7.86     0  02:53        0.71
  WS02006235           JUNCTION     0.52     0.74     7.91     0  02:52        0.74
  WS02006238           JUNCTION     0.54     0.77     7.92     0  02:52        0.77
  WS02006240           JUNCTION     0.44     0.70     7.99     0  02:52        0.70
  WS02006242           JUNCTION     0.49     0.77     8.04     0  02:52        0.77
  WS02006243           JUNCTION     0.37     0.66     8.08     0  02:52        0.66
  WS02006245           JUNCTION     0.36     0.63     8.11     0  02:52        0.62
  WS02006247           JUNCTION     0.38     0.64     8.14     0  04:16        0.64
  WS02006248           JUNCTION     0.33     0.58     8.16     0  04:15        0.58
  WS02006249           JUNCTION     0.37     0.60     8.19     0  04:15        0.60
  WS02006239           JUNCTION     0.49     0.75     7.96     0  02:52        0.75
  WS02006251           JUNCTION     0.36     0.62     8.29     0  04:16        0.62
  WS02006252           JUNCTION     0.32     0.58     8.83     0  03:30        0.58
  WS02006253           JUNCTION     0.38     0.64     8.29     0  04:17        0.64
  WS02006256           JUNCTION     0.92     1.13     8.07     0  02:46        1.13
  WS02004138           JUNCTION     0.16     0.19     7.44     0  03:02        0.19
  WS02004407           JUNCTION     0.20     0.27     6.59     0  02:59        0.27
  WS02006228           JUNCTION     0.69     0.91     7.56     0  02:53        0.91
  WS02006229           JUNCTION     0.66     0.90     7.59     0  02:53        0.90
  WS02006280           JUNCTION     0.05     0.10     8.37     0  02:30        0.10
  WS02006284           JUNCTION     0.34     0.42     8.82     0  02:29        0.42
  WS02006287           JUNCTION     0.07     0.15     9.10     0  02:29        0.15
  WSF200               JUNCTION     0.20     0.27     5.51     0  03:00        0.27
  HS02004901           JUNCTION     0.10     0.18    10.00     0  02:27        0.18
  HS02004881           JUNCTION     0.00     0.01     9.04     0  02:29        0.01
  HS02004876           JUNCTION     0.03     0.08     9.11     0  02:30        0.08
  HS02004870           JUNCTION     0.01     0.02     9.31     0  02:29        0.02
  HS02004862           JUNCTION     0.01     0.03     9.41     0  02:31        0.03
  HS02004856           JUNCTION     0.07     0.09     9.52     0  02:30        0.09
  HS02004852           JUNCTION     0.00     0.02     9.53     0  02:31        0.02
  HS02004848           JUNCTION     0.00     0.02     9.62     0  02:28        0.02
  HS02004842           JUNCTION     0.33     0.35     9.62     0  02:28        0.35
  HS02004837           JUNCTION     0.02     0.04     9.62     0  02:28        0.04
  HS02004830           JUNCTION     0.03     0.05     9.52     0  02:29        0.05
  HS02004824           JUNCTION     0.02     0.03     9.43     0  02:33        0.03
  HS02004817           JUNCTION     0.41     0.48     9.33     0  02:30        0.48
  HS02004807           JUNCTION     0.10     0.15     9.32     0  02:30        0.15
  HS02004802           JUNCTION     0.14     0.19     9.32     0  02:30        0.19
  HS02004799           JUNCTION     0.09     0.18     9.39     0  02:27        0.18
  HS02004792           JUNCTION     0.02     0.06     9.58     0  02:26        0.06
  HS02004788           JUNCTION     0.01     0.05     9.94     0  02:28        0.05
  HS02004785           JUNCTION     0.03     0.09     9.99     0  02:28        0.09
  HS02004777           JUNCTION     0.12     0.20    10.00     0  02:28        0.20
  HS02004770           JUNCTION     0.09     0.17    10.00     0  02:27        0.17
  HS02004480           JUNCTION     0.05     0.14     9.38     0  02:28        0.14
  HS02004479           JUNCTION     0.09     0.17     9.38     0  02:28        0.17
  HS02004478           JUNCTION     0.04     0.09     9.31     0  02:29        0.09
  YS02001745           JUNCTION     0.06     0.08     7.60     0  03:01        0.08
  YS02001748           JUNCTION     0.07     0.10     7.18     0  03:13        0.10
  YS02001751           JUNCTION     0.19     0.30     7.18     0  03:12        0.30
  YS02001754           JUNCTION     0.44     0.58     7.19     0  03:14        0.58
  YS02001762           JUNCTION     0.63     0.78     7.18     0  03:12        0.78
  YS02001765           JUNCTION     0.59     0.73     7.18     0  03:12        0.73
  YS02001767           JUNCTION     0.55     0.69     7.18     0  03:11        0.69
  YS02001770           JUNCTION     0.54     0.68     7.18     0  03:13        0.68
  YS02001774           JUNCTION     0.61     0.76     7.18     0  03:13        0.76
  YS02001779           JUNCTION     0.37     0.50     7.18     0  03:04        0.49
  YS02001882           JUNCTION     0.22     0.32     7.04     0  03:02        0.32
  YS02001884           JUNCTION     0.31     0.42     7.04     0  03:02        0.42
  YS02001759           JUNCTION     0.67     0.82     7.18     0  03:14        0.81
  YS02001887           JUNCTION     0.39     0.50     7.04     0  03:02        0.50
  YS02001890           JUNCTION     0.42     0.53     7.03     0  03:02        0.53
  YS02001898           JUNCTION     0.19     0.28     7.02     0  03:02        0.28
  YS02001901           JUNCTION     0.31     0.41     7.02     0  03:03        0.41
  YS02001904           JUNCTION     0.29     0.39     7.02     0  03:03        0.39
  YS02001907           JUNCTION     0.62     0.73     7.02     0  03:02        0.73
  YS02001910           JUNCTION     0.41     0.51     7.02     0  03:03        0.51
  YS02001915           JUNCTION     0.21     0.30     7.02     0  03:03        0.30
  YS02001918           JUNCTION     0.06     0.07     7.14     0  03:05        0.07
  YS02001619           JUNCTION     0.15     0.26     7.19     0  03:09        0.26
  YS02001629           JUNCTION     0.49     0.63     7.18     0  03:08        0.63
  YS02001641           JUNCTION     0.60     0.74     7.18     0  03:11        0.74
  YS02001644           JUNCTION     0.60     0.75     7.18     0  03:11        0.75
  YS02001652           JUNCTION     0.45     0.59     7.18     0  03:11        0.58
  YS02001655           JUNCTION     0.22     0.33     7.18     0  03:10        0.33
  YS02001920           JUNCTION     0.14     0.16     7.17     0  03:04        0.16
  YS02001923           JUNCTION     0.05     0.06     7.32     0  03:03        0.06
  YS02001926           JUNCTION     0.11     0.13     7.58     0  03:03        0.13
  YS02001929           JUNCTION     0.05     0.06     7.75     0  03:01        0.06
  YS02001658           JUNCTION     0.06     0.09     7.24     0  03:01        0.09
  YS02001661           JUNCTION     0.12     0.16     7.57     0  03:01        0.16
  YS02001664           JUNCTION     0.05     0.08     8.01     0  03:01        0.08
  YS02001622           JUNCTION     0.17     0.28     7.18     0  03:09        0.28
  YS02001633           JUNCTION     0.58     0.73     7.18     0  03:09        0.73
  YS02001649           JUNCTION     0.64     0.79     7.18     0  03:11        0.79
  YS02001757           JUNCTION     0.76     0.92     7.18     0  03:11        0.92
  YS02001895           JUNCTION     0.19     0.28     7.03     0  03:03        0.28
  YS02001625           JUNCTION     0.45     0.58     7.18     0  03:08        0.58
  YS02163301           JUNCTION     0.52     0.66     7.18     0  03:08        0.66
  YS02163601           JUNCTION     0.64     0.78     7.18     0  03:09        0.78
  YS02164001           JUNCTION     0.58     0.72     7.18     0  03:07        0.72
  YS02001647           JUNCTION     0.44     0.57     7.18     0  03:12        0.57
  YSB1154              JUNCTION     0.23     0.32     9.38     0  02:28        0.32
  YSB6556              JUNCTION     0.12     0.21     9.38     0  02:27        0.21
  YSB1174              JUNCTION     0.18     0.27     9.38     0  02:28        0.27
  YSB1171              JUNCTION     0.38     0.47     9.38     0  02:28        0.47
  YS02006553           JUNCTION     0.62     0.73     7.02     0  03:03        0.73
  YS02006561           JUNCTION     0.10     0.16     6.82     0  03:03        0.16
  YS02006556           JUNCTION     0.60     0.71     7.02     0  03:03        0.71
  YS02006558           JUNCTION     0.64     0.75     7.02     0  03:03        0.75
  YS02001783           JUNCTION     0.18     0.27     6.41     0  03:03        0.27
  YS02001784           JUNCTION     0.21     0.31     6.37     0  03:03        0.31
  YS02001786           JUNCTION     0.18     0.26     6.29     0  03:04        0.26
  YS02001788           JUNCTION     0.13     0.19     6.17     0  03:04        0.19
  YS02001790           JUNCTION     0.15     0.23     5.87     0  03:04        0.23
  YS02001791           JUNCTION     0.10     0.15     5.62     0  03:05        0.15
  YS02001793           JUNCTION     0.07     0.10     4.93     0  03:05        0.10
  WS02004139           JUNCTION     0.61     0.73     5.64     0  03:10        0.73
  WSC                  OUTFALL      0.29     0.37     1.04     0  03:08        0.37
  3                    OUTFALL      0.03     0.13     6.13     0  02:46        0.13
  4                    OUTFALL      0.01     0.10     7.10     0  04:15        0.10
  5                    OUTFALL      0.00     0.00     5.00     0  00:00        0.00
  JK-storage           STORAGE      0.08     3.00     3.80     0  00:10        3.00
  CC-storage           STORAGE      0.01     0.06     7.06     0  03:25        0.06
  XR-storage           STORAGE      0.56     5.00     3.00     0  00:00        4.96
  
  
  *******************
  Node Inflow Summary
  *******************
  
  -------------------------------------------------------------------------------------------------
                                  Maximum  Maximum                  Lateral       Total        Flow
                                  Lateral    Total  Time of Max      Inflow      Inflow     Balance
                                   Inflow   Inflow   Occurrence      Volume      Volume       Error
  Node                 Type           LPS      LPS  days hr:min    10^6 ltr    10^6 ltr     Percent
  -------------------------------------------------------------------------------------------------
  WS02001211           JUNCTION      7.35   387.65     0  03:10       0.207         7.3       0.485
  WS02001212           JUNCTION      0.00   387.77     0  03:10           0        7.26       0.291
  WS02001213           JUNCTION      0.00   388.09     0  03:10           0        7.24       0.310
  WS02003069           JUNCTION      0.32   846.98     0  03:07     0.00902        13.4       0.208
  WS02003072           JUNCTION      0.00   846.93     0  03:07           0        13.4       0.260
  WS02003073           JUNCTION      1.82   848.79     0  03:08      0.0514        13.4       0.292
  WS02003060           JUNCTION     16.53   846.65     0  03:06       0.466        13.4       0.200
  WS02003066           JUNCTION      0.00   452.51     0  03:03           0        5.77       0.066
  WS02003059           JUNCTION      0.00   388.72     0  03:11           0        7.22       0.501
  WS02003067           JUNCTION      0.00   452.48     0  03:03           0        5.78       0.144
  WS02004401           JUNCTION      0.00   458.76     0  02:58           0        5.99       0.312
  WS02004402           JUNCTION      0.00   457.99     0  02:58           0        5.97       0.299
  WS02004403           JUNCTION      0.00   457.60     0  02:58           0        5.95       0.276
  WS02004404           JUNCTION      0.16   457.44     0  02:58     0.00457        5.94       0.212
  WS02004406           JUNCTION      0.00   457.35     0  02:58           0        5.91       0.521
  WS02004409           JUNCTION      0.00   456.83     0  02:59           0        5.87       0.226
  WS02004410           JUNCTION      0.00   454.73     0  03:00           0        5.86       0.263
  WS02004411           JUNCTION      0.00   453.67     0  03:01           0        5.84       0.276
  WS02004412           JUNCTION      0.00   452.95     0  03:02           0        5.83       0.305
  WS02004413           JUNCTION      0.00   452.58     0  03:02           0        5.81       0.465
  WS02004405           JUNCTION      0.04   457.42     0  02:58     0.00107        5.93       0.318
  WS02006109           JUNCTION      1.23   464.52     0  02:53      0.0347        6.07       0.278
  WS02006110           JUNCTION      0.00   464.52     0  02:53           0        6.06       0.292
  WS02006111           JUNCTION      0.00   478.35     0  02:53           0        6.03       0.053
  WS02006112           JUNCTION      4.25   469.66     0  02:54      0.0155        6.04       0.440
  WS02006113           JUNCTION      0.00   464.65     0  02:54           0        6.04       0.120
  WS02006115           JUNCTION      0.00   463.66     0  02:54           0        6.02       0.285
  WS02006116           JUNCTION      0.00   459.79     0  02:57           0           6       0.248
  WS02006230           JUNCTION     10.28   393.79     0  04:16        0.29        5.46       0.152
  WS02006231           JUNCTION      0.00   383.54     0  04:14           0        5.18       0.196
  WS02006232           JUNCTION      0.00   383.58     0  04:14           0        5.19       0.245
  WS02006234           JUNCTION      0.00   384.33     0  04:13           0        5.19       0.100
  WS02006235           JUNCTION      0.00   384.50     0  04:13           0        5.23       0.151
  WS02006238           JUNCTION      0.00   312.04     0  04:20           0         3.5       0.152
  WS02006240           JUNCTION      0.00   315.93     0  03:31           0        3.48       0.183
  WS02006242           JUNCTION      0.00   325.08     0  03:31           0        3.48       0.230
  WS02006243           JUNCTION      0.00   333.62     0  03:31           0        3.47      -0.120
  WS02006245           JUNCTION      0.00   340.64     0  03:31           0        3.47       0.141
  WS02006247           JUNCTION      0.00   346.88     0  03:30           0        3.48       0.091
  WS02006248           JUNCTION      0.00   352.41     0  03:30           0        3.48       0.024
  WS02006249           JUNCTION      0.00   406.50     0  02:50           0        3.63       0.163
  WS02006239           JUNCTION      0.00   311.46     0  04:20           0        3.49       0.189
  WS02006251           JUNCTION      0.08   409.09     0  02:50     0.00217        3.68       0.109
  WS02006252           JUNCTION      0.00   400.00     0  04:10           0        3.54       0.007
  WS02006253           JUNCTION      0.64    39.90     0  04:51     0.00201        0.13       1.029
  WS02006256           JUNCTION      0.00   369.83     0  02:46           0        2.62       0.083
  WS02004138           JUNCTION      0.00   380.00     0  03:00           0        7.13       0.075
  WS02004407           JUNCTION      0.00   457.03     0  02:59           0        5.88       0.102
  WS02006228           JUNCTION      0.00   463.29     0  02:53           0        6.05       0.195
  WS02006229           JUNCTION      0.00   463.28     0  02:53           0        6.06       0.164
  WS02006280           JUNCTION      0.00   103.07     0  02:30           0       0.614       0.012
  WS02006284           JUNCTION      0.10   103.07     0  02:29      0.0027       0.615       0.189
  WS02006287           JUNCTION      0.00   102.98     0  02:29           0       0.613       0.113
  WSF200               JUNCTION      0.00   452.50     0  03:03           0        5.77       0.060
  HS02004901           JUNCTION      5.25     5.25     0  02:18      0.0186      0.0188      10.317
  HS02004881           JUNCTION      2.13    17.99     0  02:29     0.00813      0.0838       0.222
  HS02004876           JUNCTION      3.44    16.09     0  02:28      0.0155      0.0762       0.685
  HS02004870           JUNCTION      3.78    12.71     0  02:28      0.0154      0.0608       0.175
  HS02004862           JUNCTION      3.26     9.15     0  02:29      0.0209      0.0456       0.367
  HS02004856           JUNCTION      2.80     5.91     0  02:28      0.0115      0.0262       5.795
  HS02004852           JUNCTION      0.00     3.26     0  02:29           0      0.0147       0.326
  HS02004848           JUNCTION      6.36     6.36     0  02:33      0.0361      0.0361       0.118
  HS02004842           JUNCTION      0.00     4.48     0  00:03           0      0.0344      60.772
  HS02004837           JUNCTION     12.44    15.39     0  02:27       0.206       0.227       0.359
  HS02004830           JUNCTION      0.15    15.54     0  02:28     0.00423       0.217       0.569
  HS02004824           JUNCTION      7.25    22.69     0  02:33      0.0474       0.264       0.205
  HS02004817           JUNCTION      0.60    23.29     0  02:33      0.0169        0.28       6.325
  HS02004807           JUNCTION      7.10    29.82     0  02:31      0.0283       0.292       1.469
  HS02004802           JUNCTION      0.00    29.90     0  02:32           0       0.287       1.435
  HS02004799           JUNCTION      5.48    62.31     0  02:26      0.0228       0.297       0.761
  HS02004792           JUNCTION     24.56    56.94     0  02:26       0.103       0.274       0.152
  HS02004788           JUNCTION      9.12    33.38     0  02:27      0.0788       0.172       0.226
  HS02004785           JUNCTION      0.15    24.50     0  02:26     0.00423      0.0957       0.502
  HS02004777           JUNCTION      0.03    24.64     0  02:24    0.000846      0.0958       5.702
  HS02004770           JUNCTION     20.65    25.26     0  02:21      0.0796      0.0966       3.317
  HS02004480           JUNCTION      0.00    73.39     0  02:28           0       0.342       0.196
  HS02004479           JUNCTION      0.00    11.25     0  02:29           0      0.0575       1.282
  HS02004478           JUNCTION      0.00   102.98     0  02:29           0       0.614       0.109
  YS02001745           JUNCTION     36.57    36.57     0  03:01       0.427       0.427       0.080
  YS02001748           JUNCTION      0.04    36.59     0  03:01     0.00127       0.428       0.040
  YS02001751           JUNCTION      0.01    56.94     0  05:04     0.00031       0.524       0.265
  YS02001754           JUNCTION      0.26   186.37     0  05:11     0.00733       0.889       1.248
  YS02001762           JUNCTION      0.00    51.60     0  03:05           0       0.558       2.504
  YS02001765           JUNCTION      0.00    67.96     0  05:00           0       0.548       2.709
  YS02001767           JUNCTION      0.54    58.56     0  05:16      0.0151       0.552       3.511
  YS02001770           JUNCTION     48.09    52.94     0  02:56       0.514       0.532       3.129
  YS02001774           JUNCTION      0.00    23.99     0  02:36           0      0.0773      23.235
  YS02001779           JUNCTION      0.01    11.24     0  02:36    0.000141      0.0449      12.619
  YS02001882           JUNCTION      0.00     1.95     0  02:22           0      0.0033      75.059
  YS02001884           JUNCTION      0.00     5.63     0  02:11           0      0.0135      46.885
  YS02001759           JUNCTION     47.23   102.72     0  03:06       0.483        1.01       1.559
  YS02001887           JUNCTION     62.67    62.67     0  03:01       0.594         0.6       1.104
  YS02001890           JUNCTION      0.00    62.19     0  03:00           0       0.582       1.255
  YS02001898           JUNCTION      0.00    61.82     0  03:01           0       0.571       0.318
  YS02001901           JUNCTION      0.00    61.93     0  03:03           0       0.571       0.867
  YS02001904           JUNCTION      0.00    61.68     0  03:03           0       0.571       0.811
  YS02001907           JUNCTION      0.00   111.82     0  03:03           0        1.21       1.767
  YS02001910           JUNCTION      0.00    50.41     0  03:02           0       0.654       1.458
  YS02001915           JUNCTION     33.14    50.38     0  03:01        0.37       0.658       0.587
  YS02001918           JUNCTION      0.00    17.54     0  03:04           0       0.289       0.279
  YS02001619           JUNCTION     32.10    32.10     0  03:01       0.364       0.364       0.147
  YS02001629           JUNCTION      0.00    33.92     0  02:43           0       0.348       1.596
  YS02001641           JUNCTION      0.00    69.27     0  03:11           0       0.735       1.713
  YS02001644           JUNCTION     34.68   100.80     0  03:10        0.41        1.13       1.357
  YS02001652           JUNCTION      0.00    55.66     0  05:09           0       0.482       1.911
  YS02001655           JUNCTION      0.15    44.36     0  03:01     0.00434       0.437       0.694
  YS02001920           JUNCTION      2.87    17.56     0  03:03      0.0809        0.29       0.579
  YS02001923           JUNCTION      0.04    14.69     0  03:03     0.00106        0.21       0.103
  YS02001926           JUNCTION      0.05    14.72     0  03:01     0.00147        0.21       0.747
  YS02001929           JUNCTION     14.68    14.68     0  03:01       0.209       0.209       0.097
  YS02001658           JUNCTION      0.00    44.22     0  03:01           0       0.426       0.048
  YS02001661           JUNCTION      0.00    44.24     0  03:01           0       0.427       0.169
  YS02001664           JUNCTION     44.25    44.25     0  03:01       0.427       0.427       0.033
  YS02001622           JUNCTION      0.00    32.88     0  02:53           0       0.363       0.675
  YS02001633           JUNCTION     35.25    69.23     0  02:44       0.423       0.759       2.420
  YS02001649           JUNCTION      0.00   149.48     0  03:09           0        1.55       1.509
  YS02001757           JUNCTION      0.00   328.71     0  05:00           0        3.17       2.165
  YS02001895           JUNCTION      0.00    61.93     0  03:01           0       0.574       0.533
  YS02001625           JUNCTION      0.00    34.77     0  02:53           0       0.361       4.146
  YS02163301           JUNCTION      0.00    34.86     0  02:44           0       0.349       3.536
  YS02163601           JUNCTION      0.11    68.15     0  03:01      0.0031       0.739       2.643
  YS02164001           JUNCTION      0.00    69.61     0  03:11           0        0.73       1.596
  YS02001647           JUNCTION      0.00   102.28     0  03:10           0         1.1       1.100
  YSB1154              JUNCTION      6.12     6.12     0  02:25      0.0276       0.029       5.238
  YSB6556              JUNCTION      0.00     6.09     0  02:27           0      0.0301       4.315
  YSB1174              JUNCTION      5.96     5.96     0  02:17      0.0202      0.0212       6.438
  YSB1171              JUNCTION      0.00    11.26     0  02:27           0      0.0569      12.496
  YS02006553           JUNCTION      0.00   111.94     0  03:05           0         1.2       1.152
  YS02006561           JUNCTION      0.00   163.77     0  03:03           0         1.7       0.030
  YS02006556           JUNCTION      0.00   112.10     0  03:05           0         1.2       0.825
  YS02006558           JUNCTION     53.23   163.80     0  03:03       0.541        1.72       0.248
  YS02001783           JUNCTION      0.00   163.76     0  03:03           0         1.7       0.070
  YS02001784           JUNCTION      1.06   164.82     0  03:03      0.0299        1.73       0.118
  YS02001786           JUNCTION      0.06   164.86     0  03:04     0.00159        1.72       0.115
  YS02001788           JUNCTION      0.07   164.92     0  03:04       0.002        1.72       0.064
  YS02001790           JUNCTION      0.15   165.07     0  03:04     0.00437        1.73       0.083
  YS02001791           JUNCTION      0.00   165.05     0  03:04           0        1.73       0.040
  YS02001793           JUNCTION      0.00   165.05     0  03:05           0        1.73       0.019
  WS02004139           JUNCTION      0.32   380.32     0  03:02     0.00905        7.13       0.543
  WSC                  OUTFALL       0.00   848.84     0  03:08           0        13.3       0.000
  3                    OUTFALL       0.00   250.97     0  02:46           0       0.859       0.000
  4                    OUTFALL       0.00    91.41     0  04:15           0       0.145       0.000
  5                    OUTFALL       0.00     0.00     0  00:00           0           0       0.000 ltr
  JK-storage           STORAGE       0.00   165.05     0  03:05           0        1.88     -28.318
  CC-storage           STORAGE       0.00   262.24     0  03:10           0        2.74     -22.636
  XR-storage           STORAGE     260.45   260.45     0  03:01        6.35        6.95      -2.474
  
  
  **********************
  Node Surcharge Summary
  **********************
  
  Surcharging occurs when water rises above the top of the highest conduit.
  ---------------------------------------------------------------------
                                               Max. Height   Min. Depth
                                   Hours       Above Crown    Below Rim
  Node                 Type      Surcharged         Meters       Meters
  ---------------------------------------------------------------------
  WS02006109           JUNCTION        0.91          0.068        1.752
  WS02006232           JUNCTION        0.85          0.059        1.421
  WS02006235           JUNCTION        0.26          0.034        1.256
  WS02006238           JUNCTION        0.64          0.052        1.378
  WS02006242           JUNCTION        0.36          0.040        0.780
  WS02006239           JUNCTION        0.05          0.007        1.283
  WS02006252           JUNCTION        1.30          0.185        0.915
  WS02006228           JUNCTION        0.85          0.079        2.121
  
  
  *********************
  Node Flooding Summary
  *********************
  
  No nodes were flooded.
  
  
  **********************
  Storage Volume Summary
  **********************
  
  --------------------------------------------------------------------------------------------------
                         Average     Avg  Evap Exfil       Maximum     Max    Time of Max    Maximum
                          Volume    Pcnt  Pcnt  Pcnt        Volume    Pcnt     Occurrence    Outflow
  Storage Unit           1000 m3    Full  Loss  Loss       1000 m3    Full    days hr:min        LPS
  --------------------------------------------------------------------------------------------------
  JK-storage               0.004       1     0     0         0.151      52       0  00:10     369.83
  CC-storage               0.024       0     0     0         0.173       1       0  03:25     400.00
  XR-storage               0.067       7     0     0         0.600      65       0  00:00     380.00
  
  
  ***********************
  Outfall Loading Summary
  ***********************
  
  -----------------------------------------------------------
                         Flow       Avg       Max       Total
                         Freq      Flow      Flow      Volume
  Outfall Node           Pcnt       LPS       LPS    10^6 ltr
  -----------------------------------------------------------
  WSC                  100.00    550.45    848.84      13.348
  3                     46.39    100.73    250.97       0.859
  4                     19.95     35.41     91.41       0.145
  5                      0.00      0.00      0.00       0.000
  -----------------------------------------------------------
  System                41.58    686.59   1075.97      14.352
  
  
  ********************
  Link Flow Summary
  ********************
  
  -----------------------------------------------------------------------------
                                 Maximum  Time of Max   Maximum    Max/    Max/
                                  |Flow|   Occurrence   |Veloc|    Full    Full
  Link                 Type          LPS  days hr:min     m/sec    Flow   Depth
  -----------------------------------------------------------------------------
  WS02003066WSF200     CONDUIT    452.50     0  03:03      2.71    0.08    0.21
  WS02006287WS02006284 CONDUIT    102.97     0  02:29      1.27    0.05    0.16
  WS02006284WS02006280 CONDUIT    103.07     0  02:30      1.52    0.04    0.14
  WS02006280WS02006229 CONDUIT    103.07     0  02:30      2.44    0.02    0.10
  WS02006229WS02006228 CONDUIT    463.29     0  02:53      0.92    1.53    1.00
  WS02006256WS02006235 CONDUIT    150.00     0  00:15      2.14    1.59    1.00
  WS02006253WS02006251 CONDUIT     42.52     0  04:52      0.37    0.13    0.89
  WS02006252WS02006251 CONDUIT    400.10     0  04:10      3.18    1.47    1.00
  WS02006251WS02006249 CONDUIT    406.50     0  02:50      1.17    1.17    0.87
  WS02006249WS02006248 CONDUIT    352.41     0  03:30      1.15    1.93    0.82
  WS02006248WS02006247 CONDUIT    346.88     0  03:30      1.11    0.76    0.86
  WS02006247WS02006245 CONDUIT    340.64     0  03:31      1.07    2.70    0.89
  WS02006245WS02006243 CONDUIT    333.62     0  03:31      1.07    0.99    0.91
  WS02006243WS02006242 CONDUIT    325.08     0  03:31      0.94    0.69    0.97
  WS02006242WS02006240 CONDUIT    315.93     0  03:31      0.87    1.25    0.99
  WS02006240WS02006239 CONDUIT    311.46     0  04:20      0.87    0.98    1.00
  WS02006239WS02006238 CONDUIT    312.04     0  04:20      0.84    1.00    1.00
  WS02006238WS02006235 CONDUIT    312.06     0  04:20      0.84    0.70    1.00
  WS02006235WS02006234 CONDUIT    384.33     0  04:13      1.03    4.05    0.99
  WS02006234WS02006232 CONDUIT    383.58     0  04:14      1.00    0.78    1.00
  WS02006232WS02006231 CONDUIT    383.54     0  04:14      1.04    0.80    0.93
  WS02006231WS02006230 CONDUIT    383.51     0  04:16      1.31    5.82    0.82
  WS02006230WS02006229 CONDUIT    393.81     0  04:17      1.02    8.76    1.00
  WS02006228WS02006109 CONDUIT    463.29     0  02:53      0.92    2.02    1.00
  WS02006116WS02004401 CONDUIT    458.76     0  02:58      0.79    0.63    0.78
  WS02006115WS02006116 CONDUIT    459.79     0  02:57      0.94    0.59    0.69
  WS02006113WS02006111 CONDUIT    478.35     0  02:53      2.34    0.57    0.43
  WS02006112WS02006115 CONDUIT    463.66     0  02:54      0.69    0.27    0.82
  WS02006111WS02006112 CONDUIT    467.35     0  02:54      1.33    0.22    0.66
  WS02006110WS02006113 CONDUIT    464.65     0  02:54      1.13    0.42    0.76
  WS02006109WS02006110 CONDUIT    464.52     0  02:53      0.93    0.89    0.97
  WS02004411WS02004412 CONDUIT    452.95     0  03:02      0.85    0.64    0.64
  WS02004401WS02004402 CONDUIT    457.99     0  02:58      0.83    0.55    0.80
  WS02004413WS02003067 CONDUIT    452.48     0  03:03      1.01    0.19    0.55
  WS02004412WS02004413 CONDUIT    452.58     0  03:02      0.74    0.30    0.73
  WS02004410WS02004411 CONDUIT    453.67     0  03:01      0.88    0.62    0.63
  WS02004409WS02004410 CONDUIT    454.73     0  03:00      0.91    0.59    0.61
  WS02004407WS02004409 CONDUIT    456.83     0  02:59      1.41    0.16    0.44
  WS02004406WS02004407 CONDUIT    457.03     0  02:59      0.95    0.20    0.59
  WS02004405WS02004406 CONDUIT    457.35     0  02:58      0.77    0.90    0.91
  WS02004404WS02004405 CONDUIT    457.38     0  02:58      0.96    4.48    0.91
  WS02004403WS02004404 CONDUIT    457.28     0  02:58      0.85    0.33    0.87
  WS02004402WS02004403 CONDUIT    457.60     0  02:58      0.87    0.66    0.83
  WS02004139WS02001211 CONDUIT    380.30     0  03:10      0.81    0.48    0.59
  WS02004138WS02004139 CONDUIT    380.00     0  03:02      3.34    0.08    0.44
  WS02003067WS02003066 CONDUIT    452.51     0  03:03      1.10    0.15    0.39
  WS02001213WS02003059 CONDUIT    388.72     0  03:11      0.78    0.64    0.75
  WS02001212WS02001213 CONDUIT    388.09     0  03:10      1.31    0.60    0.46
  WS02001211WS02001212 CONDUIT    387.77     0  03:10      0.77    0.30    0.64
  WS02003072WS02003073 CONDUIT    846.97     0  03:08      1.67    1.83    0.46
  WS02003069WS02003072 CONDUIT    846.93     0  03:07      1.57    0.41    0.48
  WS02003060WS02003069 CONDUIT    846.66     0  03:07      1.82    0.33    0.43
  WS02003059WS02003060 CONDUIT    389.62     0  03:11      0.93    0.25    0.64
  HS02004901HS02004770 CONDUIT      4.80     0  02:25      0.03    0.02    0.25
  HS02004876HS02004881 CONDUIT     16.05     0  02:30      0.34    0.17    0.07
  HS02004870HS02004876 CONDUIT     12.70     0  02:29      0.24    0.01    0.08
  HS02004842HS02004848 CONDUIT      3.25     0  02:42      0.02    0.00    0.26
  HS02004837HS02004842 CONDUIT      4.48     0  00:03      0.42    0.00    0.27
  HS02004830HS02004837 CONDUIT     15.39     0  02:28      0.37    0.02    0.06
  HS02004824HS02004830 CONDUIT     15.54     0  02:29      0.41    0.02    0.05
  HS02004817HS02004824 CONDUIT     22.69     0  02:33      0.17    0.01    0.36
  HS02004770HS02004777 CONDUIT     24.61     0  02:24      0.14    0.04    0.26
  HS02004799HS02004480 CONDUIT     62.22     0  02:27      0.40    0.08    0.22
  HS02004792HS02004799 CONDUIT     56.92     0  02:26      0.47    0.03    0.17
  HS02004788HS02004792 CONDUIT     33.36     0  02:28      0.64    0.02    0.07
  HS02004785HS02004788 CONDUIT     24.42     0  02:28      0.36    0.18    0.10
  HS02004777HS02004785 CONDUIT     24.35     0  02:26      0.17    0.03    0.21
  HS02004480HS02004478 CONDUIT     73.37     0  02:28      0.71    0.31    0.15
  HS02004479HS02004480 CONDUIT     11.32     0  02:30      0.15    0.01    0.22
  HS02004862HS02004870 CONDUIT      9.13     0  02:30      0.34    0.01    0.04
  HS02004848HS02004852 CONDUIT      3.26     0  02:29      0.22    0.00    0.02
  HS02004856HS02004862 CONDUIT      5.89     0  02:30      0.24    0.01    0.03
  HS02004852HS02004856 CONDUIT      3.24     0  02:31      0.06    0.00    0.08
  HS02004802HS02004478 CONDUIT     30.01     0  02:34      0.22    0.03    0.20
  HS02004478WS02006287 CONDUIT    102.98     0  02:29      0.96    0.03    0.12
  HS02004817HS02004807 CONDUIT     23.48     0  02:35      0.07    0.01    0.45
  HS02004807HS02004802 CONDUIT     29.90     0  02:32      0.19    0.06    0.24
  YS02001759YS02001757 CONDUIT    101.04     0  03:06      0.14    0.07    0.87
  YS02001762YS02001759 CONDUIT     69.12     0  04:59      0.17    0.08    0.80
  YS02001765YS02001762 CONDUIT     51.60     0  03:05      0.22    0.05    0.76
  YS02001770YS02001767 CONDUIT     52.40     0  03:05      0.28    0.21    0.69
  YS02001774YS02001770 CONDUIT     23.99     0  02:36      0.12    0.02    0.71
  YS02001779YS02001774 CONDUIT     11.24     0  02:36      0.06    0.01    0.63
  YS02001649YS02001757 CONDUIT    148.00     0  03:04      0.21    0.09    0.85
  YS02001767YS02001765 CONDUIT     67.96     0  05:00      0.25    0.09    0.71
  YS02006561YS02001783 CONDUIT    163.76     0  03:03      1.50    0.08    0.27
  YS02001783YS02001784 CONDUIT    163.76     0  03:03      1.00    0.23    0.36
  YS02001784YS02001785 CONDUIT    164.80     0  03:04      1.03    0.38    0.35
  YS02001788YS02001790 CONDUIT    164.91     0  03:04      1.58    0.12    0.26
  YS02001790YS02001791 CONDUIT    165.05     0  03:04      1.80    0.18    0.24
  YS02001791YS02001793 CONDUIT    165.05     0  03:05      3.47    0.07    0.16
  YS02001910YS02001907 CONDUIT     50.42     0  03:05      0.49    0.03    0.62
  YS02001786YS02001788 CONDUIT    164.85     0  03:04      1.43    0.32    0.28
  YS02001915YS02001910 CONDUIT     50.41     0  03:02      0.44    0.03    0.41
  YS02001918YS02001915 CONDUIT     17.53     0  03:05      0.44    0.01    0.18
  YS02001923YS02001920 CONDUIT     14.69     0  03:03      0.31    0.01    0.11
  YS02001926YS02001923 CONDUIT     14.65     0  03:03      0.37    0.02    0.10
  YS02001929YS02001926 CONDUIT     14.67     0  03:01      0.38    0.01    0.10
  YS02001920YS02001918 CONDUIT     17.54     0  03:04      0.35    0.02    0.12
  YS02001629YS02163301 CONDUIT     34.86     0  02:44      0.08    0.04    0.65
  YS02001619YS02001622 CONDUIT     32.88     0  02:53      0.52    0.05    0.27
  YS02001622YS02001625 CONDUIT     34.77     0  02:53      0.17    0.02    0.43
  YS02001625YS02001629 CONDUIT     33.92     0  02:43      0.17    0.02    0.42
  YS02163301YS02001633 CONDUIT     37.58     0  02:44      0.07    0.04    0.70
  YS02163601YS02164001 CONDUIT     69.61     0  03:11      0.11    0.06    0.75
  YS02164001YS02001641 CONDUIT     69.27     0  03:11      0.11    0.09    0.73
  YS02001641YS02001644 CONDUIT     68.06     0  03:10      0.12    0.22    0.75
  YS02001647YS02001649 CONDUIT    102.07     0  03:12      0.18    0.05    0.68
  YS02006553YS02006556 CONDUIT    112.10     0  03:05      0.19    0.10    0.70
  YS02006556YS02006558 CONDUIT    112.18     0  03:05      0.18    0.09    0.73
  YSB6556YSB1171       CONDUIT      6.16     0  02:31      0.03    0.01    0.49
  YS02001907YS02006553 CONDUIT    111.94     0  03:05      0.16    0.13    0.80
  YS02006558YS02006561 CONDUIT    163.77     0  03:03      1.94    0.36    0.34
  YS02001633YS02163601 CONDUIT     68.04     0  03:01      0.12    0.07    0.74
  YS02001644YS02001647 CONDUIT    102.28     0  03:10      0.19    0.06    0.66
  YS02001745YS02001748 CONDUIT     36.55     0  03:01      1.18    0.01    0.08
  YS02001748YS02001751 CONDUIT     38.35     0  03:13      0.91    0.02    0.20
  YS02001751YS02001754 CONDUIT     77.36     0  04:57      0.82    0.04    0.41
  YS02001754YS02001757 CONDUIT    150.00     0  05:11      0.33    0.06    0.75
  YS02001882YS02001884 CONDUIT      1.95     0  02:22      0.06    0.00    0.34
  YS02001884YS02001887 CONDUIT      5.63     0  02:11      0.04    0.01    0.43
  YS02001890YS02001895 CONDUIT     61.93     0  03:01      0.21    0.03    0.41
  YS02001895YS02001898 CONDUIT     61.82     0  03:01      0.40    0.11    0.27
  YS02001898YS02001901 CONDUIT     61.93     0  03:03      0.26    0.04    0.35
  YS02001901YS02001904 CONDUIT     61.68     0  03:03      0.21    0.10    0.40
  YS02001904YS02001907 CONDUIT     61.93     0  03:03      0.14    0.02    0.56
  YS02001887YS02001890 CONDUIT     62.19     0  03:00      0.16    0.11    0.49
  YS02001652YS02001649 CONDUIT     53.85     0  04:52      0.24    0.03    0.69
  YS02001655YS02001652 CONDUIT     51.19     0  03:04      0.88    0.02    0.44
  YS02001658YS02001655 CONDUIT     44.21     0  03:01      1.04    0.02    0.21
  YS02001661YS02001658 CONDUIT     44.22     0  03:01      1.20    0.02    0.09
  YS02001664YS02001661 CONDUIT     44.24     0  03:01      0.81    0.01    0.12
  YSB1154YSB6556       CONDUIT      6.09     0  02:27      0.19    0.01    0.38
  YSB1174YSB1171       CONDUIT      5.55     0  02:20      0.03    0.01    0.49
  YSB1171HS02004479    CONDUIT     11.25     0  02:29      0.54    0.01    0.37
  HS02004881HS02006253 CONDUIT     17.99     0  02:30      1.23    0.00    0.22
  YS02001793JiankangQianchi CONDUIT    165.05     0  03:05     10.84    0.01    0.50
  YS02001757CaochengTiaoxuchi CONDUIT    262.24     0  03:10      0.74    0.12    0.49
  WSF200WS02003060     CONDUIT    453.03     0  03:03      1.66    0.10    0.31
  1                    CONDUIT    848.84     0  03:08      3.18    0.30    0.37
  2                    CONDUIT     91.41     0  04:15      4.73    0.22    0.32
  3                    CONDUIT    250.97     0  02:46      8.30    0.40    0.44
  4                    CONDUIT      0.00     0  00:00      0.00    0.00    0.00
  CC-Pump-1            PUMP       200.00     0  02:47              1.00
  CC-Pump-2            PUMP       200.00     0  02:50              1.00
  JK-Pump-1            PUMP       299.87     0  00:20              1.00
  JK-Pump-2            PUMP       300.00     0  03:50              1.00
  XR-Pump-1            PUMP        95.00     0  00:00              1.00
  XR-Pump-2            PUMP        95.00     0  00:00              1.00
  XR-Pump-3            PUMP        95.00     0  00:20              1.00
  XR-Pump-4            PUMP        95.00     0  00:00              1.00
  
  
  ***************************
  Flow Classification Summary
  ***************************
  
  -------------------------------------------------------------------------------------
                      Adjusted    ---------- Fraction of Time in Flow Class ---------- 
                       /Actual         Up    Down  Sub   Sup   Up    Down  Norm  Inlet 
  Conduit               Length    Dry  Dry   Dry   Crit  Crit  Crit  Crit  Ltd   Ctrl  
  -------------------------------------------------------------------------------------
  WS02003066WSF200        1.00   0.03  0.02  0.00  0.00  0.95  0.00  0.00  0.85  0.00
  WS02006287WS02006284    1.00   0.04  0.02  0.00  0.74  0.21  0.00  0.00  0.81  0.00
  WS02006284WS02006280    1.00   0.05  0.00  0.00  0.00  0.00  0.00  0.95  0.00  0.00
  WS02006280WS02006229    1.00   0.05  0.00  0.00  0.00  0.00  0.00  0.95  0.00  0.00
  WS02006229WS02006228    1.00   0.00  0.00  0.00  1.00  0.00  0.00  0.00  0.00  0.00
  WS02006256WS02006235    1.00   0.00  0.00  0.00  1.00  0.00  0.00  0.00  0.00  0.00
  WS02006253WS02006251    1.00   0.03  0.02  0.00  0.95  0.00  0.00  0.00  0.00  0.00
  WS02006252WS02006251    1.00   0.10  0.00  0.00  0.00  0.00  0.90  0.00  0.00  0.00
  WS02006251WS02006249    1.00   0.00  0.00  0.00  1.00  0.00  0.00  0.00  0.32  0.00
  WS02006249WS02006248    1.00   0.00  0.00  0.00  0.89  0.00  0.10  0.00  0.00  0.00
  WS02006248WS02006247    1.00   0.00  0.00  0.00  0.97  0.00  0.00  0.02  0.21  0.00
  WS02006247WS02006245    1.00   0.00  0.00  0.00  0.98  0.00  0.00  0.02  0.00  0.00
  WS02006245WS02006243    1.00   0.01  0.00  0.00  0.94  0.00  0.00  0.05  0.02  0.00
  WS02006243WS02006242    1.00   0.01  0.00  0.00  0.99  0.00  0.00  0.00  0.26  0.00
  WS02006242WS02006240    1.00   0.01  0.00  0.00  0.99  0.00  0.00  0.00  0.00  0.00
  WS02006240WS02006239    1.00   0.01  0.00  0.00  0.95  0.00  0.00  0.04  0.01  0.00
  WS02006239WS02006238    1.00   0.00  0.00  0.00  1.00  0.00  0.00  0.00  0.02  0.00
  WS02006238WS02006235    1.00   0.00  0.00  0.00  1.00  0.00  0.00  0.00  0.00  0.00
  WS02006235WS02006234    1.00   0.00  0.00  0.00  0.95  0.00  0.04  0.00  0.00  0.00
  WS02006234WS02006232    1.00   0.00  0.00  0.00  0.99  0.00  0.00  0.00  0.08  0.00
  WS02006232WS02006231    1.00   0.00  0.00  0.00  0.99  0.00  0.00  0.00  0.00  0.00
  WS02006231WS02006230    1.00   0.01  0.00  0.00  0.42  0.00  0.58  0.00  0.00  0.00
  WS02006230WS02006229    1.00   0.00  0.00  0.00  0.99  0.00  0.00  0.01  0.00  0.00
  WS02006228WS02006109    1.00   0.00  0.00  0.00  1.00  0.00  0.00  0.00  0.00  0.00
  WS02006116WS02004401    1.00   0.03  0.00  0.00  0.97  0.00  0.00  0.00  0.00  0.00
  WS02006115WS02006116    1.00   0.03  0.00  0.00  0.97  0.00  0.00  0.01  0.00  0.00
  WS02006113WS02006111    1.00   0.02  0.00  0.00  0.00  0.98  0.00  0.00  0.14  0.00
  WS02006112WS02006115    1.00   0.02  0.01  0.00  0.97  0.00  0.00  0.00  0.00  0.00
  WS02006111WS02006112    1.00   0.02  0.00  0.00  0.97  0.00  0.00  0.00  0.95  0.00
  WS02006110WS02006113    1.00   0.00  0.01  0.00  0.99  0.00  0.00  0.00  0.00  0.00
  WS02006109WS02006110    1.00   0.00  0.00  0.00  1.00  0.00  0.00  0.00  0.00  0.00
  WS02004411WS02004412    1.00   0.04  0.00  0.00  0.96  0.00  0.00  0.00  0.00  0.00
  WS02004401WS02004402    1.00   0.03  0.00  0.00  0.97  0.00  0.00  0.00  0.00  0.00
  WS02004413WS02003067    1.00   0.04  0.01  0.00  0.00  0.00  0.96  0.00  0.00  0.00
  WS02004412WS02004413    1.00   0.04  0.00  0.00  0.96  0.00  0.00  0.00  0.01  0.00
  WS02004410WS02004411    1.00   0.04  0.00  0.00  0.96  0.00  0.00  0.00  0.00  0.00
  WS02004409WS02004410    1.00   0.04  0.00  0.00  0.96  0.00  0.00  0.00  0.02  0.00
  WS02004407WS02004409    1.00   0.04  0.00  0.00  0.96  0.00  0.00  0.00  0.92  0.00
  WS02004406WS02004407    1.00   0.00  0.04  0.00  0.96  0.00  0.00  0.00  0.00  0.00
  WS02004405WS02004406    1.00   0.00  0.00  0.00  1.00  0.00  0.00  0.00  0.03  0.00
  WS02004404WS02004405    1.00   0.00  0.00  0.00  1.00  0.00  0.00  0.00  0.00  0.00
  WS02004403WS02004404    1.00   0.00  0.03  0.00  0.97  0.00  0.00  0.00  0.00  0.00
  WS02004402WS02004403    1.00   0.03  0.00  0.00  0.97  0.00  0.00  0.00  0.00  0.00
  WS02004139WS02001211    1.00   0.00  0.00  0.00  1.00  0.00  0.00  0.00  0.00  0.00
  WS02004138WS02004139    1.00   0.00  0.00  0.00  1.00  0.00  0.00  0.00  1.00  0.00
  WS02003067WS02003066    1.00   0.04  0.00  0.00  0.95  0.00  0.00  0.00  0.00  0.00
  WS02001213WS02003059    1.00   0.00  0.00  0.00  1.00  0.00  0.00  0.00  0.00  0.00
  WS02001212WS02001213    1.00   0.00  0.00  0.00  0.70  0.00  0.30  0.00  0.00  0.00
  WS02001211WS02001212    1.00   0.00  0.00  0.00  1.00  0.00  0.00  0.00  0.00  0.00
  WS02003072WS02003073    1.00   0.00  0.00  0.00  0.00  0.00  0.00  1.00  0.00  0.00
  WS02003069WS02003072    1.00   0.00  0.00  0.00  1.00  0.00  0.00  0.00  0.27  0.00
  WS02003060WS02003069    1.00   0.00  0.00  0.00  1.00  0.00  0.00  0.00  0.09  0.00
  WS02003059WS02003060    1.00   0.00  0.00  0.00  1.00  0.00  0.00  0.00  0.01  0.00
  HS02004901HS02004770    1.00   0.05  0.00  0.00  0.95  0.00  0.00  0.00  0.03  0.00
  HS02004876HS02004881    1.00   0.00  0.00  0.00  1.00  0.00  0.00  0.00  0.00  0.00
  HS02004870HS02004876    1.00   0.00  0.00  0.00  1.00  0.00  0.00  0.00  0.95  0.00
  HS02004842HS02004848    1.00   0.00  0.05  0.00  0.95  0.00  0.00  0.00  0.70  0.00
  HS02004837HS02004842    1.00   0.00  0.00  0.00  1.00  0.00  0.00  0.00  0.11  0.00
  HS02004830HS02004837    1.00   0.00  0.00  0.00  1.00  0.00  0.00  0.00  0.99  0.00
  HS02004824HS02004830    1.00   0.00  0.00  0.00  1.00  0.00  0.00  0.00  0.00  0.00
  HS02004817HS02004824    1.00   0.00  0.00  0.00  1.00  0.00  0.00  0.00  1.00  0.00
  HS02004770HS02004777    1.00   0.00  0.05  0.00  0.95  0.00  0.00  0.00  0.08  0.00
  HS02004799HS02004480    1.00   0.00  0.01  0.00  0.94  0.00  0.05  0.00  0.00  0.00
  HS02004792HS02004799    1.00   0.00  0.00  0.00  1.00  0.00  0.00  0.00  0.98  0.00
  HS02004788HS02004792    1.00   0.00  0.00  0.00  1.00  0.00  0.00  0.00  0.98  0.00
  HS02004785HS02004788    1.00   0.00  0.00  0.00  1.00  0.00  0.00  0.00  0.00  0.00
  HS02004777HS02004785    1.00   0.00  0.00  0.00  1.00  0.00  0.00  0.00  0.22  0.00
  HS02004480HS02004478    1.00   0.05  0.00  0.00  0.76  0.00  0.00  0.19  0.00  0.00
  HS02004479HS02004480    1.00   0.01  0.00  0.00  0.99  0.00  0.00  0.00  0.16  0.00
  HS02004862HS02004870    1.00   0.00  0.00  0.00  1.00  0.00  0.00  0.00  0.06  0.00
  HS02004848HS02004852    1.00   0.05  0.00  0.00  0.95  0.00  0.00  0.00  0.68  0.00
  HS02004856HS02004862    1.00   0.00  0.08  0.00  0.92  0.00  0.00  0.00  0.73  0.00
  HS02004852HS02004856    1.00   0.05  0.01  0.00  0.94  0.00  0.00  0.00  0.82  0.00
  HS02004802HS02004478    1.00   0.05  0.01  0.00  0.94  0.00  0.00  0.00  0.00  0.00
  HS02004478WS02006287    1.00   0.06  0.00  0.00  0.94  0.00  0.00  0.00  0.81  0.00
  HS02004817HS02004807    1.00   0.00  0.05  0.00  0.95  0.00  0.00  0.00  0.00  0.00
  HS02004807HS02004802    1.00   0.05  0.00  0.00  0.95  0.00  0.00  0.00  0.01  0.00
  YS02001759YS02001757    1.00   0.00  0.00  0.00  1.00  0.00  0.00  0.00  0.17  0.00
  YS02001762YS02001759    1.00   0.00  0.00  0.00  1.00  0.00  0.00  0.00  0.05  0.00
  YS02001765YS02001762    1.00   0.00  0.00  0.00  1.00  0.00  0.00  0.00  0.23  0.00
  YS02001770YS02001767    1.00   0.00  0.00  0.00  1.00  0.00  0.00  0.00  0.00  0.00
  YS02001774YS02001770    1.00   0.00  0.06  0.00  0.94  0.00  0.00  0.00  0.07  0.00
  YS02001779YS02001774    1.00   0.00  0.00  0.00  1.00  0.00  0.00  0.00  0.28  0.00
  YS02001649YS02001757    1.00   0.00  0.00  0.00  1.00  0.00  0.00  0.00  0.19  0.00
  YS02001767YS02001765    1.00   0.00  0.00  0.00  1.00  0.00  0.00  0.00  0.01  0.00
  YS02006561YS02001783    1.00   0.08  0.00  0.00  0.00  0.92  0.00  0.00  0.72  0.00
  YS02001783YS02001784    1.00   0.00  0.08  0.00  0.92  0.00  0.00  0.00  0.12  0.00
  YS02001784YS02001785    1.00   0.00  0.00  0.00  1.00  0.00  0.00  0.00  0.27  0.00
  YS02001788YS02001790    1.00   0.00  0.00  0.00  0.08  0.92  0.00  0.00  0.99  0.00
  YS02001790YS02001791    1.00   0.00  0.00  0.00  0.00  1.00  0.00  0.00  0.34  0.00
  YS02001791YS02001793    1.00   0.00  0.00  0.00  0.00  1.00  0.00  0.00  0.00  0.00
  YS02001910YS02001907    1.00   0.00  0.00  0.00  0.99  0.00  0.00  0.01  0.13  0.00
  YS02001786YS02001788    1.00   0.00  0.00  0.00  0.11  0.89  0.00  0.00  0.00  0.00
  YS02001915YS02001910    1.00   0.00  0.00  0.00  1.00  0.00  0.00  0.00  0.25  0.00
  YS02001918YS02001915    1.00   0.00  0.00  0.00  1.00  0.00  0.00  0.00  0.80  0.00
  YS02001923YS02001920    1.00   0.00  0.00  0.00  1.00  0.00  0.00  0.00  1.00  0.00
  YS02001926YS02001923    1.00   0.00  0.04  0.00  0.00  0.00  0.96  0.00  0.00  0.00
  YS02001929YS02001926    1.00   0.00  0.05  0.00  0.95  0.00  0.00  0.00  0.86  0.00
  YS02001920YS02001918    1.00   0.00  0.00  0.00  1.00  0.00  0.00  0.00  0.00  0.00
  YS02001629YS02163301    1.00   0.07  0.00  0.00  0.93  0.00  0.00  0.00  0.00  0.00
  YS02001619YS02001622    1.00   0.05  0.00  0.00  0.95  0.00  0.00  0.00  0.00  0.00
  YS02001622YS02001625    1.00   0.05  0.00  0.00  0.95  0.00  0.00  0.00  0.15  0.00
  YS02001625YS02001629    1.00   0.05  0.03  0.00  0.90  0.00  0.02  0.00  0.00  0.00
  YS02163301YS02001633    1.00   0.00  0.07  0.00  0.93  0.00  0.00  0.00  0.00  0.00
  YS02163601YS02164001    1.00   0.00  0.04  0.00  0.96  0.00  0.00  0.00  0.00  0.00
  YS02164001YS02001641    1.00   0.00  0.04  0.00  0.96  0.00  0.00  0.00  0.07  0.00
  YS02001641YS02001644    1.00   0.00  0.00  0.00  1.00  0.00  0.00  0.00  0.00  0.00
  YS02001647YS02001649    1.00   0.00  0.08  0.00  0.92  0.00  0.00  0.00  0.01  0.00
  YS02006553YS02006556    1.00   0.00  0.00  0.00  1.00  0.00  0.00  0.00  0.03  0.00
  YS02006556YS02006558    1.00   0.00  0.00  0.00  1.00  0.00  0.00  0.00  0.00  0.00
  YSB6556YSB1171          1.00   0.02  0.03  0.00  0.95  0.00  0.00  0.00  0.00  0.00
  YS02001907YS02006553    1.00   0.00  0.00  0.00  1.00  0.00  0.00  0.00  0.00  0.00
  YS02006558YS02006561    1.00   0.08  0.00  0.00  0.00  0.92  0.00  0.00  0.71  0.00
  YS02001633YS02163601    1.00   0.00  0.00  0.00  1.00  0.00  0.00  0.00  0.20  0.00
  YS02001644YS02001647    1.00   0.00  0.08  0.00  0.92  0.00  0.00  0.00  0.00  0.00
  YS02001745YS02001748    1.00   0.00  0.00  0.00  0.00  0.00  0.00  1.00  0.00  0.00
  YS02001748YS02001751    1.00   0.00  0.00  0.00  0.97  0.03  0.00  0.00  0.86  0.00
  YS02001751YS02001754    1.00   0.00  0.00  0.00  0.91  0.00  0.00  0.08  0.03  0.00
  YS02001754YS02001757    1.00   0.00  0.00  0.00  1.00  0.00  0.00  0.00  0.28  0.00
  YS02001882YS02001884    1.00   0.06  0.00  0.00  0.93  0.00  0.00  0.00  0.00  0.00
  YS02001884YS02001887    1.00   0.03  0.01  0.00  0.96  0.00  0.00  0.00  0.00  0.00
  YS02001890YS02001895    1.00   0.00  0.07  0.00  0.93  0.00  0.00  0.00  0.00  0.00
  YS02001895YS02001898    1.00   0.07  0.00  0.00  0.92  0.00  0.01  0.00  0.00  0.00
  YS02001898YS02001901    1.00   0.07  0.01  0.00  0.93  0.00  0.00  0.00  0.02  0.00
  YS02001901YS02001904    1.00   0.07  0.00  0.00  0.93  0.00  0.00  0.00  0.00  0.00
  YS02001904YS02001907    1.00   0.00  0.07  0.00  0.93  0.00  0.00  0.00  0.00  0.00
  YS02001887YS02001890    1.00   0.00  0.00  0.00  0.99  0.00  0.01  0.00  0.00  0.00
  YS02001652YS02001649    1.00   0.00  0.00  0.00  1.00  0.00  0.00  0.00  0.27  0.00
  YS02001655YS02001652    1.00   0.00  0.00  0.00  0.92  0.00  0.00  0.08  0.03  0.00
  YS02001658YS02001655    1.00   0.00  0.06  0.00  0.91  0.03  0.00  0.00  0.79  0.00
  YS02001661YS02001658    1.00   0.06  0.00  0.00  0.00  0.94  0.00  0.00  0.72  0.00
  YS02001664YS02001661    1.00   0.05  0.00  0.00  0.95  0.00  0.00  0.00  0.86  0.00
  YSB1154YSB6556          1.00   0.05  0.00  0.00  0.95  0.00  0.00  0.00  0.02  0.00
  YSB1174YSB1171          1.00   0.03  0.01  0.00  0.96  0.00  0.00  0.00  0.00  0.00
  YSB1171HS02004479       1.00   0.01  0.00  0.00  0.97  0.00  0.00  0.02  0.13  0.00
  HS02004881HS02006253    1.00   0.03  0.00  0.00  0.62  0.02  0.00  0.34  0.43  0.00
  YS02001793JiankangQianchi    1.00   0.00  0.00  0.00  0.07  0.93  0.00  0.00  0.12  0.00
  YS02001757CaochengTiaoxuchi    1.00   0.00  0.10  0.00  0.90  0.00  0.00  0.00  0.00  0.00
  WSF200WS02003060        1.00   0.00  0.03  0.00  0.91  0.06  0.00  0.00  0.57  0.00
  1                       1.00   0.00  0.00  0.00  0.00  1.00  0.00  0.00  0.40  0.00
  2                       1.00   0.80  0.00  0.00  0.00  0.20  0.00  0.00  0.05  0.00
  3                       1.00   0.53  0.00  0.00  0.00  0.46  0.00  0.00  0.02  0.00
  4                       1.00   1.00  0.00  0.00  0.00  0.00  0.00  0.00  0.00  0.00
  
  
  *************************
  Conduit Surcharge Summary
  *************************
  
  ----------------------------------------------------------------------------
                                                           Hours        Hours 
                         --------- Hours Full --------   Above Full   Capacity
  Conduit                Both Ends  Upstream  Dnstream   Normal Flow   Limited
  ----------------------------------------------------------------------------
  WS02006229WS02006228        0.85      0.96      0.85      2.47         0.85
  WS02006256WS02006235        5.54      5.54      7.02      1.90         0.01
  WS02006252WS02006251        0.53      0.53      1.30      1.06         0.01
  WS02006251WS02006249        0.01      0.01      0.01      0.54         0.01
  WS02006249WS02006248        0.01      0.01      0.01      2.36         0.01
  WS02006247WS02006245        0.01      0.01      0.01      3.62         0.01
  WS02006243WS02006242        0.01      0.01      0.36      0.01         0.01
  WS02006242WS02006240        0.01      0.01      0.68      1.31         0.01
  WS02006240WS02006239        0.01      0.01      0.05      0.01         0.01
  WS02006239WS02006238        0.55      0.55      0.64      0.01         0.01
  WS02006238WS02006235        0.46      0.46      0.79      0.01         0.01
  WS02006235WS02006234        0.01      0.01      0.26      5.52         0.01
  WS02006234WS02006232        0.07      0.07      0.85      0.01         0.01
  WS02006232WS02006231        0.01      0.01      0.85      0.01         0.01
  WS02006231WS02006230        0.01      0.01      0.01      5.61         0.01
  WS02006230WS02006229        1.58      2.33      1.58      5.74         1.58
  WS02006228WS02006109        0.91      1.23      0.91      3.63         0.91
  WS02006111WS02006112        0.01      0.01      2.59      0.01         0.01
  WS02006110WS02006113        0.01      0.01      1.06      0.01         0.01
  WS02006109WS02006110        0.01      0.01      1.24      0.01         0.01
  WS02004404WS02004405        0.01      0.01      0.01      5.39         0.01
  WS02003072WS02003073        0.01      0.01      0.01      4.10         0.01
  YS02001793JiankangQianchi        0.01      0.01      0.35      0.01         0.01
  
  
  ***************
  Pumping Summary
  ***************
  
  ---------------------------------------------------------------------------------------------------------
                                                  Min       Avg       Max     Total     Power    % Time Off
                        Percent   Number of      Flow      Flow      Flow    Volume     Usage    Pump Curve
  Pump                 Utilized   Start-Ups       LPS       LPS       LPS  10^6 ltr     Kw-hr    Low   High
  ---------------------------------------------------------------------------------------------------------
  CC-Pump-1               50.17           5      0.00    115.70    200.00     1.592      7.12    0.0  100.0
  CC-Pump-2               60.81           4      0.00    118.17    200.00     1.953      8.64    0.0  100.0
  JK-Pump-1               61.70           5      0.00     80.61    299.87     1.093     20.49    0.0    0.0
  JK-Pump-2               85.11           5      0.00     84.06    300.00     1.524     29.49    0.0    0.0
  XR-Pump-1               95.73           7      0.00     74.12     95.00     1.995     45.33    0.0    0.0
  XR-Pump-2               93.60           5      0.00     71.92     95.00     1.853     42.01    0.0    0.0
  XR-Pump-3               89.36           7      0.00     72.60     95.00     1.795     41.35    0.0    0.0
  XR-Pump-4               80.84           8      0.00     61.97     95.00     1.482     33.51    0.0    0.0
  

  Analysis begun on:  Fri Dec 24 12:51:05 2021
  Analysis ended on:  Fri Dec 24 12:51:08 2021
  Total elapsed time: 00:00:03