
  EPA STORM WATER MANAGEMENT MODEL - VERSION 5.1 (Build 5.3.0.dev0)
  --------------------------------------------------------------

  WARNING 04: minimum elevation drop used for Conduit WS02004404WS02004405
  WARNING 03: negative offset ignored for Link YS02001904YS02001907
  
  *********************************************************
  NOTE: The summary statistics displayed in this report are
  based on results found at every computational time step,  
  not just on results from each reporting time step.
  *********************************************************
  
  ****************
  Analysis Options
  ****************
  Flow Units ............... LPS
  Process Models:
    Rainfall/Runoff ........ YES
    RDII ................... NO
    Snowmelt ............... NO
    Groundwater ............ NO
    Flow Routing ........... YES
    Ponding Allowed ........ NO
    Water Quality .......... NO
  Infiltration Method ...... HORTON
  Flow Routing Method ...... DYNWAVE
  Surcharge Method ......... EXTRAN
  Starting Date ............ 08/28/2015 08:00:00
  Ending Date .............. 08/28/2015 15:50:00
  Antecedent Dry Days ...... 8.0
  Report Time Step ......... 00:01:00
  Wet Time Step ............ 00:01:00
  Dry Time Step ............ 00:01:00
  Routing Time Step ........ 5.00 sec
  Variable Time Step ....... YES
  Maximum Trials ........... 8
  Number of Threads ........ 4
  Head Tolerance ........... 0.001500 m
  
  
  **************************        Volume         Depth
  Runoff Quantity Continuity     hectare-m            mm
  **************************     ---------       -------
  Total Precipitation ......         2.691         5.892
  Evaporation Loss .........         0.000         0.000
  Infiltration Loss ........         0.676         1.480
  Surface Runoff ...........         1.133         2.480
  Final Storage ............         0.883         1.933
  Continuity Error (%) .....        -0.018
  
  
  **************************        Volume        Volume
  Flow Routing Continuity        hectare-m      10^6 ltr
  **************************     ---------     ---------
  Dry Weather Inflow .......         0.616         6.165
  Wet Weather Inflow .......         1.132        11.321
  Groundwater Inflow .......         0.000         0.000
  RDII Inflow ..............         0.000         0.000
  External Inflow ..........         0.102         1.024
  External Outflow .........         1.689        16.889
  Flooding Loss ............         0.027         0.274
  Evaporation Loss .........         0.000         0.000
  Exfiltration Loss ........         0.000         0.000
  Initial Stored Volume ....         0.076         0.761
  Final Stored Volume ......         0.304         3.036
  Continuity Error (%) .....        -4.820
  
  
  *************************
  Highest Continuity Errors
  *************************
  Node HS02004842 (28.52%)
  Node JK-storage (-26.31%)
  Node YS02001884 (22.91%)
  Node YS02001774 (21.72%)
  Node YSB1171 (6.99%)
  
  
  ***************************
  Time-Step Critical Elements
  ***************************
  Link WS02006252WS02006251 (53.76%)
  Link 3 (32.16%)
  Link WS02006238WS02006235 (6.28%)
  Link WS02006280WS02006229 (2.07%)
  Link WS02006229WS02006228 (1.60%)
  
  
  ********************************
  Highest Flow Instability Indexes
  ********************************
  Link WS02006113WS02006111 (39)
  Link WS02006111WS02006112 (25)
  Link YS02006558YS02006561 (10)
  Link WS02006110WS02006113 (3)
  Link YS02001655YS02001652 (2)
  
  
  *************************
  Routing Time Step Summary
  *************************
  Minimum Time Step           :     0.50 sec
  Average Time Step           :     0.88 sec
  Maximum Time Step           :     5.00 sec
  Percent in Steady State     :    -0.00
  Average Iterations per Step :     2.04
  Percent Not Converging      :     0.37
  
  
  ***************************
  Subcatchment Runoff Summary
  ***************************
  
  ------------------------------------------------------------------------------------------------------------------------------
                            Total      Total      Total      Total     Imperv       Perv      Total       Total     Peak  Runoff
                           Precip      Runon       Evap      Infil     Runoff     Runoff     Runoff      Runoff   Runoff   Coeff
  Subcatchment                 mm         mm         mm         mm         mm         mm         mm    10^6 ltr      LPS
  ------------------------------------------------------------------------------------------------------------------------------
  sub0                       5.89       0.00       0.00       0.41       4.21       0.00       4.21        0.00     1.47   0.715
  sub1                       5.89       0.00       0.00       0.65       3.99       0.00       3.99        0.03     7.65   0.677
  sub2                       5.89       0.00       0.00       2.18       2.81       0.00       2.81        0.03     6.74   0.476
  sub3                       5.89       0.00       0.00       2.18       2.77       0.00       2.77        0.06    13.82   0.470
  sub4                       5.89       0.00       0.00       0.65       3.85       0.00       3.85        0.08    15.45   0.654
  sub5                       5.89       0.00       0.00       0.41       4.17       0.00       4.17        0.05    13.60   0.707
  sub7                       5.89       0.00       0.00       0.53       4.11       0.00       4.11        0.01     4.82   0.697
  sub8                       5.89       0.00       0.00       0.53       4.10       0.00       4.10        0.03     8.49   0.696
  sub9                       5.89       0.00       0.00       0.53       4.10       0.00       4.10        0.02     6.29   0.695
  sub10                      5.89       0.00       0.00       0.47       4.13       0.00       4.13        0.05    13.58   0.701
  sub11                      5.89       0.00       0.00       0.47       4.15       0.00       4.15        0.05    15.97   0.704
  sub12                      5.89       0.00       0.00       0.77       3.94       0.00       3.94        0.03    13.59   0.668
  sub14                      5.89       0.00       0.00       0.53       4.09       0.00       4.09        0.04    12.29   0.695
  sub15                      5.89       0.00       0.00       1.77       3.15       0.00       3.15        0.05    16.66   0.534
  sub16                      5.89       0.00       0.00       1.94       3.03       0.00       3.03        0.03    11.93   0.514
  sub17                      5.89       0.00       0.00       1.89       3.07       0.00       3.07        0.03     9.64   0.522
  sub22                      5.89       0.00       0.00       2.53       2.57       0.00       2.57        0.16    54.70   0.436
  sub23                      5.89       0.00       0.00       2.18       2.84       0.00       2.84        0.14    46.61   0.482
  sub60                      5.89       0.00       0.00       0.71       2.76       0.00       2.76        0.84    76.77   0.469
  sub61                      5.89       0.00       0.00       1.00       2.95       0.00       2.95        0.91    96.90   0.501
  sub62                      5.89       0.00       0.00       0.47       3.17       0.00       3.17        0.97    98.85   0.538
  sub63                      5.89       0.00       0.00       1.71       2.63       0.00       2.63        0.80    90.67   0.447
  sub64                      5.89       0.00       0.00       0.88       2.64       0.00       2.64        0.80    72.89   0.448
  sub65                      5.89       0.00       0.00       0.77       2.67       0.00       2.67        0.82    73.94   0.453
  sub66                      5.89       0.00       0.00       1.71       2.30       0.00       2.30        0.71    66.93   0.391
  sub67                      5.89       0.00       0.00       0.47       3.49       0.00       3.49        1.08   127.64   0.592
  sub68                      5.89       0.00       0.00       0.82       3.14       0.00       3.14        0.97   107.31   0.534
  sub69                      5.89       0.00       0.00       0.88       3.40       0.00       3.40        0.79   107.30   0.576
  sub70                      5.89       3.47       0.00       3.18       4.16       0.00       4.16        0.95    85.44   0.445
  sub71                      5.89       0.00       0.00       0.47       3.03       0.00       3.03        0.72    68.84   0.514
  sub72                      5.89       0.00       0.00       0.41       2.13       0.00       2.13        0.43    32.41   0.362
  sub73                      5.89       4.05       0.00       3.38       4.23       0.00       4.23        0.99    73.37   0.426
  sub74                      5.89       0.00       0.00       4.42       1.02       0.00       1.02        0.41    60.02   0.174
  
  
  ******************
  Node Depth Summary
  ******************
  
  ---------------------------------------------------------------------------------
                                 Average  Maximum  Maximum  Time of Max    Reported
                                   Depth    Depth      HGL   Occurrence   Max Depth
  Node                 Type       Meters   Meters   Meters  days hr:min      Meters
  ---------------------------------------------------------------------------------
  WS02001211           JUNCTION     0.65     0.77     5.61     0  06:41        0.77
  WS02001212           JUNCTION     0.38     0.48     5.54     0  06:41        0.48
  WS02001213           JUNCTION     0.62     0.72     5.48     0  06:42        0.72
  WS02003069           JUNCTION     0.44     0.54     5.13     0  02:53        0.54
  WS02003072           JUNCTION     0.51     0.60     4.98     0  02:54        0.60
  WS02003073           JUNCTION     0.31     0.37     4.43     0  02:55        0.37
  WS02003060           JUNCTION     0.39     0.48     5.41     0  02:53        0.48
  WS02003066           JUNCTION     0.24     0.28     5.84     0  02:46        0.28
  WS02003059           JUNCTION     0.68     0.78     5.46     0  02:52        0.77
  WS02003067           JUNCTION     0.59     0.67     5.99     0  02:46        0.67
  WS02004401           JUNCTION     0.68     0.80     6.80     0  02:42        0.80
  WS02004402           JUNCTION     0.71     0.83     6.79     0  02:42        0.83
  WS02004403           JUNCTION     0.73     0.85     6.78     0  02:43        0.85
  WS02004404           JUNCTION     0.81     0.92     6.77     0  02:43        0.92
  WS02004406           JUNCTION     0.81     0.92     6.75     0  02:43        0.92
  WS02004409           JUNCTION     0.50     0.62     6.39     0  02:45        0.62
  WS02004410           JUNCTION     0.52     0.64     6.36     0  02:46        0.64
  WS02004411           JUNCTION     0.54     0.65     6.33     0  02:46        0.65
  WS02004412           JUNCTION     0.55     0.66     6.30     0  02:46        0.66
  WS02004413           JUNCTION     0.71     0.82     6.29     0  02:46        0.82
  WS02004405           JUNCTION     0.80     0.91     6.76     0  02:43        0.91
  WS02006109           JUNCTION     0.76     0.89     7.51     0  02:38        0.89
  WS02006110           JUNCTION     0.76     0.87     7.45     0  02:39        0.87
  WS02006111           JUNCTION     0.22     0.27     6.97     0  02:39        0.27
  WS02006112           JUNCTION     0.85     0.98     6.87     0  02:42        0.98
  WS02006113           JUNCTION     0.35     0.42     7.31     0  02:39        0.42
  WS02006115           JUNCTION     0.57     0.69     6.83     0  02:42        0.69
  WS02006116           JUNCTION     0.65     0.78     6.82     0  02:42        0.78
  WS02006230           JUNCTION     0.73     0.91     7.65     0  02:39        0.91
  WS02006231           JUNCTION     0.49     0.59     7.72     0  03:45        0.59
  WS02006232           JUNCTION     0.63     0.74     7.78     0  03:45        0.74
  WS02006234           JUNCTION     0.55     0.69     7.85     0  03:44        0.69
  WS02006235           JUNCTION     0.58     0.73     7.89     0  03:44        0.73
  WS02006238           JUNCTION     0.61     0.76     7.90     0  03:45        0.76
  WS02006240           JUNCTION     0.51     0.69     7.99     0  03:44        0.69
  WS02006242           JUNCTION     0.57     0.76     8.03     0  03:45        0.76
  WS02006243           JUNCTION     0.45     0.66     8.08     0  03:45        0.66
  WS02006245           JUNCTION     0.43     0.63     8.11     0  03:46        0.63
  WS02006247           JUNCTION     0.45     0.64     8.14     0  03:46        0.64
  WS02006248           JUNCTION     0.39     0.58     8.17     0  03:46        0.58
  WS02006249           JUNCTION     0.43     0.60     8.20     0  03:46        0.60
  WS02006239           JUNCTION     0.57     0.74     7.95     0  03:45        0.74
  WS02006251           JUNCTION     0.42     0.62     8.29     0  03:46        0.62
  WS02006252           JUNCTION     0.38     0.59     8.83     0  06:50        0.58
  WS02006253           JUNCTION     0.44     0.65     8.29     0  03:47        0.65
  WS02006256           JUNCTION     1.03     1.20     8.14     0  04:00        1.20
  WS02004138           JUNCTION     0.15     0.19     7.44     0  06:40        0.19
  WS02004407           JUNCTION     0.23     0.28     6.59     0  02:43        0.28
  WS02006228           JUNCTION     0.76     0.92     7.57     0  02:39        0.92
  WS02006229           JUNCTION     0.73     0.90     7.60     0  02:38        0.90
  WS02006280           JUNCTION     0.05     0.15     8.42     0  02:17        0.15
  WS02006284           JUNCTION     0.35     0.48     8.88     0  02:17        0.48
  WS02006287           JUNCTION     0.08     0.21     9.17     0  02:17        0.21
  WSF200               JUNCTION     0.22     0.29     5.52     0  02:48        0.29
  HS02004901           JUNCTION     0.11     0.23    10.06     0  02:15        0.23
  HS02004881           JUNCTION     0.01     0.02     9.05     0  02:17        0.02
  HS02004876           JUNCTION     0.03     0.10     9.13     0  02:15        0.10
  HS02004870           JUNCTION     0.01     0.04     9.33     0  02:17        0.04
  HS02004862           JUNCTION     0.01     0.05     9.43     0  02:18        0.05
  HS02004856           JUNCTION     0.07     0.10     9.53     0  02:17        0.10
  HS02004852           JUNCTION     0.01     0.03     9.54     0  02:19        0.03
  HS02004848           JUNCTION     0.01     0.03     9.63     0  02:17        0.03
  HS02004842           JUNCTION     0.33     0.36     9.63     0  02:16        0.36
  HS02004837           JUNCTION     0.03     0.05     9.63     0  02:17        0.05
  HS02004830           JUNCTION     0.04     0.06     9.53     0  02:17        0.06
  HS02004824           JUNCTION     0.02     0.04     9.44     0  02:20        0.04
  HS02004817           JUNCTION     0.42     0.53     9.37     0  02:18        0.53
  HS02004807           JUNCTION     0.11     0.20     9.37     0  02:18        0.20
  HS02004802           JUNCTION     0.15     0.24     9.37     0  02:18        0.24
  HS02004799           JUNCTION     0.10     0.26     9.47     0  02:16        0.26
  HS02004792           JUNCTION     0.02     0.10     9.62     0  02:15        0.10
  HS02004788           JUNCTION     0.02     0.07     9.97     0  02:16        0.07
  HS02004785           JUNCTION     0.03     0.14    10.04     0  02:15        0.14
  HS02004777           JUNCTION     0.13     0.25    10.05     0  02:15        0.25
  HS02004770           JUNCTION     0.10     0.22    10.06     0  02:15        0.22
  HS02004480           JUNCTION     0.06     0.20     9.44     0  02:16        0.20
  HS02004479           JUNCTION     0.10     0.24     9.44     0  02:16        0.24
  HS02004478           JUNCTION     0.05     0.13     9.36     0  02:17        0.13
  YS02001745           JUNCTION     0.08     0.12     7.64     0  02:58        0.12
  YS02001748           JUNCTION     0.36     0.51     7.59     0  04:26        0.50
  YS02001751           JUNCTION     0.54     0.71     7.59     0  04:24        0.71
  YS02001754           JUNCTION     0.79     0.98     7.59     0  04:25        0.98
  YS02001762           JUNCTION     0.99     1.18     7.58     0  04:25        1.18
  YS02001765           JUNCTION     0.94     1.13     7.58     0  04:24        1.13
  YS02001767           JUNCTION     0.91     1.09     7.58     0  04:24        1.09
  YS02001770           JUNCTION     0.90     1.09     7.58     0  04:26        1.08
  YS02001774           JUNCTION     0.97     1.16     7.58     0  04:26        1.16
  YS02001779           JUNCTION     0.72     0.90     7.58     0  04:26        0.89
  YS02001882           JUNCTION     0.28     0.46     7.17     0  02:48        0.46
  YS02001884           JUNCTION     0.38     0.56     7.17     0  02:50        0.56
  YS02001759           JUNCTION     1.02     1.22     7.58     0  04:25        1.21
  YS02001887           JUNCTION     0.45     0.64     7.17     0  02:49        0.64
  YS02001890           JUNCTION     0.49     0.67     7.17     0  02:49        0.67
  YS02001898           JUNCTION     0.25     0.42     7.16     0  02:52        0.42
  YS02001901           JUNCTION     0.37     0.55     7.16     0  02:51        0.55
  YS02001904           JUNCTION     0.35     0.52     7.15     0  02:51        0.52
  YS02001907           JUNCTION     0.68     0.87     7.15     0  02:51        0.87
  YS02001910           JUNCTION     0.47     0.65     7.16     0  02:51        0.65
  YS02001915           JUNCTION     0.27     0.44     7.15     0  02:50        0.44
  YS02001918           JUNCTION     0.08     0.10     7.16     0  03:03        0.10
  YS02001619           JUNCTION     0.50     0.66     7.59     0  04:28        0.66
  YS02001629           JUNCTION     0.85     1.04     7.59     0  04:27        1.04
  YS02001641           JUNCTION     0.96     1.17     7.61     0  03:36        1.15
  YS02001644           JUNCTION     0.96     1.16     7.60     0  04:29        1.15
  YS02001652           JUNCTION     0.80     1.00     7.59     0  04:27        0.99
  YS02001655           JUNCTION     0.57     0.74     7.59     0  04:25        0.74
  YS02001920           JUNCTION     0.17     0.21     7.21     0  03:02        0.21
  YS02001923           JUNCTION     0.06     0.08     7.34     0  03:02        0.08
  YS02001926           JUNCTION     0.14     0.18     7.62     0  03:01        0.18
  YS02001929           JUNCTION     0.07     0.09     7.78     0  03:01        0.09
  YS02001658           JUNCTION     0.30     0.45     7.59     0  04:23        0.44
  YS02001661           JUNCTION     0.14     0.20     7.60     0  02:43        0.20
  YS02001664           JUNCTION     0.07     0.12     8.04     0  02:43        0.12
  YS02001622           JUNCTION     0.52     0.68     7.58     0  04:25        0.68
  YS02001633           JUNCTION     0.94     1.15     7.60     0  03:36        1.13
  YS02001649           JUNCTION     1.00     1.19     7.58     0  04:25        1.19
  YS02001757           JUNCTION     1.12     1.32     7.58     0  04:25        1.32
  YS02001895           JUNCTION     0.25     0.42     7.17     0  02:49        0.42
  YS02001625           JUNCTION     0.80     0.98     7.59     0  04:26        0.98
  YS02163301           JUNCTION     0.88     1.08     7.60     0  03:36        1.07
  YS02163601           JUNCTION     1.00     1.22     7.61     0  03:36        1.19
  YS02164001           JUNCTION     0.94     1.16     7.62     0  03:36        1.13
  YS02001647           JUNCTION     0.79     0.98     7.59     0  04:29        0.97
  YSB1154              JUNCTION     0.24     0.39     9.45     0  02:16        0.39
  YSB6556              JUNCTION     0.13     0.28     9.44     0  02:16        0.28
  YSB1174              JUNCTION     0.19     0.34     9.44     0  02:16        0.34
  YSB1171              JUNCTION     0.39     0.54     9.44     0  02:16        0.54
  YS02006553           JUNCTION     0.69     0.87     7.15     0  02:51        0.87
  YS02006561           JUNCTION     0.14     0.23     6.89     0  02:50        0.23
  YS02006556           JUNCTION     0.66     0.84     7.15     0  02:51        0.84
  YS02006558           JUNCTION     0.70     0.88     7.15     0  02:50        0.88
  YS02001783           JUNCTION     0.24     0.41     6.55     0  02:50        0.41
  YS02001784           JUNCTION     0.27     0.43     6.50     0  02:51        0.43
  YS02001786           JUNCTION     0.23     0.37     6.40     0  02:51        0.37
  YS02001788           JUNCTION     0.17     0.28     6.25     0  02:51        0.28
  YS02001790           JUNCTION     0.20     0.34     5.98     0  02:52        0.34
  YS02001791           JUNCTION     0.14     0.22     5.69     0  02:52        0.22
  YS02001793           JUNCTION     0.08     0.14     4.97     0  02:32        0.14
  WS02004139           JUNCTION     0.59     0.72     5.63     0  06:40        0.72
  WSC                  OUTFALL      0.30     0.37     1.04     0  02:55        0.37
  3                    OUTFALL      0.07     0.20     6.20     0  04:00        0.20
  4                    OUTFALL      0.02     0.10     7.10     0  03:46        0.10
  5                    OUTFALL      0.00     0.00     5.00     0  00:00        0.00
  JK-storage           STORAGE      0.60     3.97     4.77     0  03:28        3.97
  CC-storage           STORAGE      0.37     0.56     7.56     0  05:24        0.56
  XR-storage           STORAGE      6.50     7.72     5.72     0  04:07        7.72
  
  
  *******************
  Node Inflow Summary
  *******************
  
  -------------------------------------------------------------------------------------------------
                                  Maximum  Maximum                  Lateral       Total        Flow
                                  Lateral    Total  Time of Max      Inflow      Inflow     Balance
                                   Inflow   Inflow   Occurrence      Volume      Volume       Error
  Node                 Type           LPS      LPS  days hr:min    10^6 ltr    10^6 ltr     Percent
  -------------------------------------------------------------------------------------------------
  WS02001211           JUNCTION      7.35   381.63     0  06:40       0.207        6.65       0.449
  WS02001212           JUNCTION      0.00   377.54     0  06:41           0        6.62       0.262
  WS02001213           JUNCTION      0.00   376.13     0  05:31           0         6.6       0.335
  WS02003069           JUNCTION      0.32   832.12     0  02:53     0.00902        14.3       0.209
  WS02003072           JUNCTION      0.00   831.65     0  02:54           0        14.2       0.258
  WS02003073           JUNCTION      1.82   833.73     0  02:54      0.0514        14.3       0.290
  WS02003060           JUNCTION     16.53   831.41     0  02:52       0.466        14.3       0.201
  WS02003066           JUNCTION      0.00   470.28     0  02:46           0         7.3       0.069
  WS02003059           JUNCTION      0.00   375.96     0  05:31           0        6.58       0.531
  WS02003067           JUNCTION      0.00   470.26     0  02:46           0        7.31       0.141
  WS02004401           JUNCTION      0.00   472.09     0  02:41           0        7.57       0.320
  WS02004402           JUNCTION      0.00   471.82     0  02:42           0        7.55       0.298
  WS02004403           JUNCTION      0.00   471.69     0  02:42           0        7.52       0.268
  WS02004404           JUNCTION      0.16   471.79     0  02:42     0.00457        7.51       0.198
  WS02004406           JUNCTION      0.00   471.78     0  02:43           0        7.47       0.483
  WS02004409           JUNCTION      0.00   471.75     0  02:43           0        7.43       0.262
  WS02004410           JUNCTION      0.00   471.15     0  02:44           0        7.41       0.291
  WS02004411           JUNCTION      0.00   470.72     0  02:45           0        7.39       0.295
  WS02004412           JUNCTION      0.00   470.46     0  02:45           0        7.37       0.312
  WS02004413           JUNCTION      0.00   470.31     0  02:46           0        7.34       0.454
  WS02004405           JUNCTION      0.04   471.80     0  02:42     0.00107        7.49       0.296
  WS02006109           JUNCTION      1.23   470.03     0  02:38      0.0347        7.68       0.269
  WS02006110           JUNCTION      0.00   470.03     0  02:39           0        7.66       0.297
  WS02006111           JUNCTION      0.00   484.50     0  02:39           0        7.63       0.068
  WS02006112           JUNCTION      9.64   476.10     0  02:39      0.0263        7.65       0.422
  WS02006113           JUNCTION      0.00   470.14     0  02:39           0        7.64       0.155
  WS02006115           JUNCTION      0.00   473.54     0  02:40           0        7.62       0.322
  WS02006116           JUNCTION      0.00   472.60     0  02:40           0        7.59       0.280
  WS02006230           JUNCTION     10.28   395.11     0  04:32        0.29        6.78       0.206
  WS02006231           JUNCTION      0.00   386.05     0  04:32           0        6.51       0.228
  WS02006232           JUNCTION      0.00   386.30     0  03:43           0        6.53       0.265
  WS02006234           JUNCTION      0.00   389.19     0  03:42           0        6.54       0.164
  WS02006235           JUNCTION      0.00   390.87     0  03:42           0        6.58       0.181
  WS02006238           JUNCTION      0.00   343.40     0  03:50           0        4.68       0.183
  WS02006240           JUNCTION      0.00   338.52     0  03:50           0        4.68       0.338
  WS02006242           JUNCTION      0.00   336.24     0  03:21           0        4.69       0.402
  WS02006243           JUNCTION      0.00   340.52     0  06:51           0        4.68      -0.024
  WS02006245           JUNCTION      0.00   345.94     0  06:51           0        4.69       0.302
  WS02006247           JUNCTION      0.00   350.88     0  06:51           0         4.7       0.225
  WS02006248           JUNCTION      0.00   355.68     0  06:51           0        4.71       0.164
  WS02006249           JUNCTION      0.00   404.47     0  03:49           0        5.05       0.291
  WS02006239           JUNCTION      0.00   341.82     0  03:50           0        4.68       0.282
  WS02006251           JUNCTION      0.08   404.55     0  03:41     0.00217         5.1       0.279
  WS02006252           JUNCTION      0.00   400.00     0  03:40           0        4.92       0.011
  WS02006253           JUNCTION      1.47    42.47     0  02:16     0.00341       0.184       4.701
  WS02006256           JUNCTION      0.00   599.96     0  04:00           0        4.27       0.062
  WS02004138           JUNCTION      0.00   379.94     0  04:30           0        6.47       0.068
  WS02004407           JUNCTION      0.00   471.76     0  02:43           0        7.44       0.118
  WS02006228           JUNCTION      0.00   468.80     0  02:39           0        7.66       0.195
  WS02006229           JUNCTION      0.00   468.80     0  02:38           0        7.68       0.177
  WS02006280           JUNCTION      0.00   217.52     0  02:17           0       0.907       0.008
  WS02006284           JUNCTION      0.10   217.51     0  02:17      0.0027       0.908       0.117
  WS02006287           JUNCTION      0.00   217.37     0  02:17           0       0.906       0.080
  WSF200               JUNCTION      0.00   470.27     0  02:46           0        7.29       0.074
  HS02004901           JUNCTION     11.93    11.93     0  02:09      0.0317      0.0318       5.839
  HS02004881           JUNCTION      4.82    41.34     0  02:16      0.0138       0.145       0.188
  HS02004876           JUNCTION      7.65    36.85     0  02:17      0.0265       0.132       0.400
  HS02004870           JUNCTION      8.49    29.37     0  02:17      0.0262       0.106       0.101
  HS02004862           JUNCTION      6.94    21.46     0  02:17      0.0318      0.0798       0.212
  HS02004856           JUNCTION      6.29    14.58     0  02:17      0.0197      0.0494       3.004
  HS02004852           JUNCTION      0.00     8.69     0  02:17           0      0.0298       0.170
  HS02004848           JUNCTION     13.82    13.82     0  02:19      0.0624      0.0624       0.070
  HS02004842           JUNCTION      0.00     5.61     0  02:29           0      0.0456      39.899
  HS02004837           JUNCTION     19.93    24.68     0  02:16       0.225       0.257       0.316
  HS02004830           JUNCTION      0.15    24.82     0  02:17     0.00423       0.248       0.500
  HS02004824           JUNCTION     15.50    40.13     0  02:20      0.0817       0.328       0.164
  HS02004817           JUNCTION      0.60    40.73     0  02:20      0.0169       0.344       5.085
  HS02004807           JUNCTION     15.97    55.26     0  02:18      0.0481       0.376       1.137
  HS02004802           JUNCTION      0.00    55.58     0  02:20           0       0.372       1.101
  HS02004799           JUNCTION     12.29   138.29     0  02:15      0.0389       0.471       0.485
  HS02004792           JUNCTION     54.98   126.27     0  02:14        0.17       0.433       0.095
  HS02004788           JUNCTION     18.33    73.52     0  02:15       0.101       0.264       0.147
  HS02004785           JUNCTION      0.15    55.60     0  02:15     0.00423       0.164       0.294
  HS02004777           JUNCTION      0.03    55.95     0  02:13    0.000846       0.165       3.244
  HS02004770           JUNCTION     46.61    57.20     0  02:11       0.135       0.166       1.906
  HS02004480           JUNCTION      0.00   163.02     0  02:15           0        0.55       0.133
  HS02004479           JUNCTION      0.00    25.28     0  02:18           0       0.091       0.808
  HS02004478           JUNCTION      0.00   217.37     0  02:17           0       0.906       0.069
  YS02001745           JUNCTION     76.78    76.78     0  02:58       0.836       0.836       0.099
  YS02001748           JUNCTION      0.04    76.82     0  02:58     0.00127       0.837       0.034
  YS02001751           JUNCTION      0.01   105.35     0  03:38     0.00031       0.837       0.834
  YS02001754           JUNCTION      0.26    91.24     0  02:25     0.00733       0.837       1.691
  YS02001762           JUNCTION      0.00   116.17     0  02:40           0       0.937       1.911
  YS02001765           JUNCTION      0.00   121.99     0  02:36           0       0.935       2.102
  YS02001767           JUNCTION      0.54   118.77     0  02:56      0.0151       0.947       2.933
  YS02001770           JUNCTION     99.01   121.86     0  02:57       0.977        1.01       2.302
  YS02001774           JUNCTION      0.00    44.79     0  02:14           0      0.0916      27.746
  YS02001779           JUNCTION      0.01    24.28     0  02:56    0.000141      0.0374      29.378
  YS02001882           JUNCTION      0.00     4.34     0  02:09           0     0.00532      46.077
  YS02001884           JUNCTION      0.00    12.00     0  02:06           0      0.0213      29.718
  YS02001759           JUNCTION     96.94   206.29     0  02:55       0.912        1.82       1.095
  YS02001887           JUNCTION    128.09   128.09     0  02:40        1.09         1.1       0.656
  YS02001890           JUNCTION      0.00   127.95     0  02:42           0        1.07       0.736
  YS02001898           JUNCTION      0.00   127.67     0  02:43           0        1.06       0.207
  YS02001901           JUNCTION      0.00   127.49     0  02:43           0        1.06       0.523
  YS02001904           JUNCTION      0.00   126.94     0  02:42           0        1.06       0.486
  YS02001907           JUNCTION      0.00   228.67     0  02:53           0        2.27       0.980
  YS02001910           JUNCTION      0.00   104.23     0  03:01           0        1.22       0.837
  YS02001915           JUNCTION     68.86   103.63     0  03:01       0.715        1.23       0.373
  YS02001918           JUNCTION      0.00    35.27     0  03:02           0       0.513       0.222
  YS02001619           JUNCTION     66.93    66.93     0  02:55       0.706       0.706       0.373
  YS02001629           JUNCTION      0.00    85.22     0  02:52           0       0.675       1.623
  YS02001641           JUNCTION      0.00   147.20     0  03:05           0        1.44       1.175
  YS02001644           JUNCTION     72.93   219.52     0  03:04       0.803        2.22       0.937
  YS02001652           JUNCTION      0.00   109.06     0  02:37           0       0.791       1.745
  YS02001655           JUNCTION      0.15   114.29     0  02:46     0.00434       0.799       1.014
  YS02001920           JUNCTION      2.87    35.29     0  03:02      0.0809       0.515       0.400
  YS02001923           JUNCTION      0.04    32.43     0  03:01     0.00106       0.435       0.070
  YS02001926           JUNCTION      0.05    32.45     0  03:01     0.00147       0.436       0.499
  YS02001929           JUNCTION     32.41    32.41     0  03:01       0.434       0.434       0.068
  YS02001658           JUNCTION      0.00    90.67     0  02:43           0       0.796       0.069
  YS02001661           JUNCTION      0.00    90.67     0  02:43           0       0.796       0.082
  YS02001664           JUNCTION     90.67    90.67     0  02:43       0.796       0.796       0.021
  YS02001622           JUNCTION      0.00    83.31     0  02:50           0       0.703       1.229
  YS02001633           JUNCTION     74.14   146.79     0  02:48       0.827        1.48       1.668
  YS02001649           JUNCTION      0.00   308.63     0  02:53           0        2.94       1.040
  YS02001757           JUNCTION      0.00   563.38     0  03:01           0         5.5       1.573
  YS02001895           JUNCTION      0.00   127.60     0  02:43           0        1.07       0.352
  YS02001625           JUNCTION      0.00    78.73     0  02:48           0       0.695       3.422
  YS02163301           JUNCTION      0.00    81.67     0  03:06           0       0.674       2.574
  YS02163601           JUNCTION      0.11   148.80     0  02:48      0.0031        1.45       1.746
  YS02164001           JUNCTION      0.00   148.52     0  02:53           0        1.44       1.075
  YS02001647           JUNCTION      0.00   219.99     0  03:04           0        2.18       0.829
  YSB1154              JUNCTION     13.60    13.60     0  02:14      0.0472      0.0485       3.067
  YSB6556              JUNCTION      0.00    13.57     0  02:17           0      0.0495       2.583
  YSB1174              JUNCTION     13.59    13.59     0  02:09      0.0344      0.0354       3.761
  YSB1171              JUNCTION      0.00    25.33     0  02:15           0      0.0904       7.514
  YS02006553           JUNCTION      0.00   228.74     0  02:54           0        2.26       0.635
  YS02006561           JUNCTION      0.00   339.67     0  02:50           0         3.2       0.021
  YS02006556           JUNCTION      0.00   228.83     0  02:54           0        2.27       0.459
  YS02006558           JUNCTION    108.19   335.92     0  02:50       0.991        3.23       0.140
  YS02001783           JUNCTION      0.00   335.89     0  02:50           0         3.2       0.048
  YS02001784           JUNCTION      1.06   336.96     0  02:51      0.0299        3.23       0.079
  YS02001786           JUNCTION      0.06   337.00     0  02:51     0.00159        3.23       0.077
  YS02001788           JUNCTION      0.07   337.06     0  02:51       0.002        3.23       0.044
  YS02001790           JUNCTION      0.15   337.22     0  02:52     0.00437        3.23       0.055
  YS02001791           JUNCTION      0.00   337.21     0  02:52           0        3.23       0.027
  YS02001793           JUNCTION      0.00   337.21     0  02:52           0        3.23       0.011
  WS02004139           JUNCTION      0.32   379.71     0  06:40     0.00905        6.47       0.518
  WSC                  OUTFALL       0.00   833.64     0  02:55           0        14.2       0.000
  3                    OUTFALL       0.00   496.72     0  04:00           0        2.34       0.000
  4                    OUTFALL       0.00    98.50     0  03:46           0       0.327       0.000
  5                    OUTFALL       0.00     0.00     0  00:00           0           0       0.000 ltr
  JK-storage           STORAGE       0.00   337.21     0  02:52           0        3.38     -20.828
  CC-storage           STORAGE       0.00   563.54     0  03:01           0        5.41       0.168
  XR-storage           STORAGE     324.79   324.79     0  02:50        7.04        7.64      -0.001
  
  
  **********************
  Node Surcharge Summary
  **********************
  
  Surcharging occurs when water rises above the top of the highest conduit.
  ---------------------------------------------------------------------
                                               Max. Height   Min. Depth
                                   Hours       Above Crown    Below Rim
  Node                 Type      Surcharged         Meters       Meters
  ---------------------------------------------------------------------
  WS02006109           JUNCTION        1.53          0.074        1.746
  WS02006232           JUNCTION        1.96          0.042        1.438
  WS02006235           JUNCTION        0.41          0.021        1.269
  WS02006238           JUNCTION        0.98          0.040        1.390
  WS02006242           JUNCTION        0.70          0.035        0.785
  WS02006252           JUNCTION        2.45          0.185        0.915
  WS02006228           JUNCTION        1.29          0.086        2.114
  YS02001762           JUNCTION        4.22          0.180        0.970
  YS02001765           JUNCTION        3.67          0.130        0.970
  YS02001767           JUNCTION        3.16          0.091        0.939
  YS02001770           JUNCTION        2.40          0.056        0.864
  YS02001774           JUNCTION        4.04          0.159        0.891
  YS02001759           JUNCTION        4.41          0.217        0.993
  YS02001641           JUNCTION        3.79          0.173        0.927
  YS02001644           JUNCTION        3.86          0.163        0.757
  YS02001633           JUNCTION        3.53          0.131        0.929
  YS02001649           JUNCTION        4.27          0.195        0.855
  YS02001757           JUNCTION        5.10          0.320        0.890
  YS02163301           JUNCTION        2.62          0.078        0.952
  YS02163601           JUNCTION        4.25          0.215        0.865
  YS02164001           JUNCTION        3.65          0.159        0.941
  
  
  *********************
  Node Flooding Summary
  *********************
  
  Flooding refers to all water that overflows a node, whether it ponds or not.
  --------------------------------------------------------------------------
                                                             Total   Maximum
                                 Maximum   Time of Max       Flood    Ponded
                        Hours       Rate    Occurrence      Volume     Depth
  Node                 Flooded       LPS   days hr:min    10^6 ltr    Meters
  --------------------------------------------------------------------------
  XR-storage              0.95    168.70      0  04:40       0.274     0.000
  
  
  **********************
  Storage Volume Summary
  **********************
  
  --------------------------------------------------------------------------------------------------
                         Average     Avg  Evap Exfil       Maximum     Max    Time of Max    Maximum
                          Volume    Pcnt  Pcnt  Pcnt        Volume    Pcnt     Occurrence    Outflow
  Storage Unit           1000 m3    Full  Loss  Loss       1000 m3    Full    days hr:min        LPS
  --------------------------------------------------------------------------------------------------
  JK-storage               0.030      10     0     0         0.199      68       0  03:28     599.96
  CC-storage               1.041       7     0     0         1.549      10       0  05:24     400.00
  XR-storage               0.780      84     0     0         0.926     100       0  04:07     379.94
  
  
  ***********************
  Outfall Loading Summary
  ***********************
  
  -----------------------------------------------------------
                         Flow       Avg       Max       Total
                         Freq      Flow      Flow      Volume
  Outfall Node           Pcnt       LPS       LPS    10^6 ltr
  -----------------------------------------------------------
  WSC                  100.00    587.71    833.64      14.222
  3                     85.15    134.58    496.72       2.340
  4                     34.21     38.84     98.50       0.327
  5                      0.00      0.00      0.00       0.000
  -----------------------------------------------------------
  System                54.84    761.13   1182.10      16.889
  
  
  ********************
  Link Flow Summary
  ********************
  
  -----------------------------------------------------------------------------
                                 Maximum  Time of Max   Maximum    Max/    Max/
                                  |Flow|   Occurrence   |Veloc|    Full    Full
  Link                 Type          LPS  days hr:min     m/sec    Flow   Depth
  -----------------------------------------------------------------------------
  WS02003066WSF200     CONDUIT    470.27     0  02:46      2.69    0.08    0.22
  WS02006287WS02006284 CONDUIT    217.41     0  02:17      1.65    0.10    0.22
  WS02006284WS02006280 CONDUIT    217.52     0  02:17      1.89    0.09    0.20
  WS02006280WS02006229 CONDUIT    217.53     0  02:17      3.04    0.05    0.15
  WS02006229WS02006228 CONDUIT    468.80     0  02:39      0.93    1.55    1.00
  WS02006256WS02006235 CONDUIT    150.00     0  00:15      2.14    1.59    1.00
  WS02006253WS02006251 CONDUIT     45.67     0  02:19      0.50    0.14    0.90
  WS02006252WS02006251 CONDUIT    400.41     0  06:50      3.19    1.47    1.00
  WS02006251WS02006249 CONDUIT    404.47     0  03:49      1.17    1.17    0.87
  WS02006249WS02006248 CONDUIT    355.68     0  06:51      1.16    1.95    0.83
  WS02006248WS02006247 CONDUIT    350.88     0  06:51      1.13    0.76    0.87
  WS02006247WS02006245 CONDUIT    345.94     0  06:51      1.09    2.74    0.90
  WS02006245WS02006243 CONDUIT    340.52     0  06:51      1.11    1.01    0.91
  WS02006243WS02006242 CONDUIT    336.24     0  03:21      0.99    0.72    0.97
  WS02006242WS02006240 CONDUIT    338.52     0  03:50      0.94    1.34    0.99
  WS02006240WS02006239 CONDUIT    341.82     0  03:50      0.98    1.08    0.99
  WS02006239WS02006238 CONDUIT    343.40     0  03:50      0.90    1.10    1.00
  WS02006238WS02006235 CONDUIT    344.01     0  03:50      0.90    0.77    1.00
  WS02006235WS02006234 CONDUIT    389.19     0  03:42      1.04    4.11    0.98
  WS02006234WS02006232 CONDUIT    386.30     0  03:43      1.01    0.78    0.99
  WS02006232WS02006231 CONDUIT    386.05     0  04:32      1.05    0.81    0.92
  WS02006231WS02006230 CONDUIT    384.84     0  04:32      1.35    5.84    0.79
  WS02006230WS02006229 CONDUIT    394.53     0  04:33      1.03    8.78    1.00
  WS02006228WS02006109 CONDUIT    468.80     0  02:38      0.93    2.05    1.00
  WS02006116WS02004401 CONDUIT    472.09     0  02:41      0.79    0.65    0.79
  WS02006115WS02006116 CONDUIT    472.60     0  02:40      0.94    0.61    0.71
  WS02006113WS02006111 CONDUIT    484.50     0  02:39      2.34    0.58    0.43
  WS02006112WS02006115 CONDUIT    473.54     0  02:40      0.68    0.28    0.83
  WS02006111WS02006112 CONDUIT    471.88     0  02:39      1.34    0.22    0.66
  WS02006110WS02006113 CONDUIT    470.14     0  02:39      1.14    0.43    0.76
  WS02006109WS02006110 CONDUIT    470.03     0  02:39      0.94    0.90    0.97
  WS02004411WS02004412 CONDUIT    470.46     0  02:45      0.87    0.67    0.65
  WS02004401WS02004402 CONDUIT    471.82     0  02:42      0.83    0.57    0.81
  WS02004413WS02003067 CONDUIT    470.26     0  02:46      1.03    0.20    0.56
  WS02004412WS02004413 CONDUIT    470.31     0  02:46      0.76    0.31    0.74
  WS02004410WS02004411 CONDUIT    470.72     0  02:45      0.89    0.64    0.64
  WS02004409WS02004410 CONDUIT    471.15     0  02:44      0.91    0.61    0.63
  WS02004407WS02004409 CONDUIT    471.75     0  02:43      1.39    0.17    0.45
  WS02004406WS02004407 CONDUIT    471.76     0  02:43      0.96    0.21    0.60
  WS02004405WS02004406 CONDUIT    471.78     0  02:43      0.77    0.93    0.92
  WS02004404WS02004405 CONDUIT    471.76     0  02:42      0.96    4.62    0.92
  WS02004403WS02004404 CONDUIT    471.63     0  02:42      0.85    0.34    0.88
  WS02004402WS02004403 CONDUIT    471.69     0  02:42      0.87    0.68    0.84
  WS02004139WS02001211 CONDUIT    374.29     0  06:40      0.81    0.47    0.58
  WS02004138WS02004139 CONDUIT    379.39     0  06:40      3.34    0.08    0.43
  WS02003067WS02003066 CONDUIT    470.28     0  02:46      1.12    0.15    0.40
  WS02001213WS02003059 CONDUIT    375.96     0  05:31      0.78    0.62    0.74
  WS02001212WS02001213 CONDUIT    376.13     0  05:31      1.30    0.58    0.44
  WS02001211WS02001212 CONDUIT    377.54     0  06:41      0.76    0.29    0.63
  WS02003072WS02003073 CONDUIT    831.91     0  02:54      1.65    1.80    0.46
  WS02003069WS02003072 CONDUIT    831.65     0  02:54      1.56    0.40    0.48
  WS02003060WS02003069 CONDUIT    831.80     0  02:53      1.81    0.33    0.43
  WS02003059WS02003060 CONDUIT    376.38     0  05:32      0.91    0.25    0.63
  HS02004901HS02004770 CONDUIT     10.98     0  02:14      0.05    0.04    0.33
  HS02004876HS02004881 CONDUIT     36.94     0  02:17      0.59    0.39    0.09
  HS02004870HS02004876 CONDUIT     29.35     0  02:17      0.41    0.02    0.10
  HS02004842HS02004848 CONDUIT      5.61     0  02:29      0.03    0.00    0.28
  HS02004837HS02004842 CONDUIT      5.81     0  02:30      0.42    0.00    0.29
  HS02004830HS02004837 CONDUIT     24.67     0  02:17      0.45    0.02    0.08
  HS02004824HS02004830 CONDUIT     24.81     0  02:17      0.49    0.03    0.07
  HS02004817HS02004824 CONDUIT     40.13     0  02:20      0.17    0.02    0.40
  HS02004770HS02004777 CONDUIT     55.92     0  02:13      0.24    0.10    0.34
  HS02004799HS02004480 CONDUIT    138.08     0  02:15      0.61    0.17    0.32
  HS02004792HS02004799 CONDUIT    126.20     0  02:15      0.70    0.08    0.26
  HS02004788HS02004792 CONDUIT     73.46     0  02:16      0.85    0.05    0.12
  HS02004785HS02004788 CONDUIT     55.50     0  02:16      0.53    0.42    0.15
  HS02004777HS02004785 CONDUIT     55.45     0  02:15      0.29    0.07    0.28
  HS02004480HS02004478 CONDUIT    162.94     0  02:16      0.99    0.69    0.24
  HS02004479HS02004480 CONDUIT     25.54     0  02:18      0.15    0.02    0.31
  HS02004862HS02004870 CONDUIT     21.42     0  02:18      0.48    0.02    0.06
  HS02004848HS02004852 CONDUIT      8.69     0  02:17      0.32    0.01    0.04
  HS02004856HS02004862 CONDUIT     14.54     0  02:17      0.35    0.01    0.06
  HS02004852HS02004856 CONDUIT      8.65     0  02:19      0.13    0.01    0.09
  HS02004802HS02004478 CONDUIT     56.01     0  02:21      0.31    0.05    0.26
  HS02004478WS02006287 CONDUIT    217.37     0  02:17      1.35    0.06    0.18
  HS02004817HS02004807 CONDUIT     41.32     0  02:22      0.11    0.02    0.52
  HS02004807HS02004802 CONDUIT     55.58     0  02:20      0.26    0.11    0.31
  YS02001759YS02001757 CONDUIT    206.91     0  02:58      0.26    0.15    1.00
  YS02001762YS02001759 CONDUIT    110.23     0  02:55      0.18    0.13    1.00
  YS02001765YS02001762 CONDUIT    116.17     0  02:40      0.23    0.11    1.00
  YS02001770YS02001767 CONDUIT    118.23     0  02:56      0.31    0.47    1.00
  YS02001774YS02001770 CONDUIT     44.79     0  02:14      0.14    0.03    1.00
  YS02001779YS02001774 CONDUIT     24.27     0  02:56      0.07    0.01    0.95
  YS02001649YS02001757 CONDUIT    310.00     0  02:53      0.39    0.19    1.00
  YS02001767YS02001765 CONDUIT    121.99     0  02:36      0.26    0.15    1.00
  YS02006561YS02001783 CONDUIT    335.89     0  02:50      1.82    0.17    0.39
  YS02001783YS02001784 CONDUIT    335.90     0  02:51      1.26    0.46    0.52
  YS02001784YS02001785 CONDUIT    336.94     0  02:51      1.34    0.78    0.50
  YS02001788YS02001790 CONDUIT    337.06     0  02:52      1.91    0.25    0.38
  YS02001790YS02001791 CONDUIT    337.21     0  02:52      2.18    0.37    0.35
  YS02001791YS02001793 CONDUIT    337.21     0  02:52      4.49    0.14    0.21
  YS02001910YS02001907 CONDUIT    105.41     0  03:04      0.49    0.06    0.75
  YS02001786YS02001788 CONDUIT    336.99     0  02:51      1.78    0.65    0.40
  YS02001915YS02001910 CONDUIT    104.23     0  03:01      0.45    0.05    0.54
  YS02001918YS02001915 CONDUIT     35.26     0  03:03      0.44    0.02    0.27
  YS02001923YS02001920 CONDUIT     32.42     0  03:02      0.46    0.01    0.14
  YS02001926YS02001923 CONDUIT     32.39     0  03:01      0.50    0.05    0.14
  YS02001929YS02001926 CONDUIT     32.39     0  03:01      0.53    0.02    0.13
  YS02001920YS02001918 CONDUIT     35.27     0  03:02      0.47    0.03    0.15
  YS02001629YS02163301 CONDUIT     81.67     0  03:06      0.11    0.10    1.00
  YS02001619YS02001622 CONDUIT     83.31     0  02:50      0.66    0.12    0.67
  YS02001622YS02001625 CONDUIT     78.73     0  02:48      0.26    0.04    0.83
  YS02001625YS02001629 CONDUIT     85.22     0  02:52      0.26    0.04    0.82
  YS02163301YS02001633 CONDUIT     74.11     0  03:05      0.10    0.07    1.00
  YS02163601YS02164001 CONDUIT    148.52     0  02:53      0.19    0.13    1.00
  YS02164001YS02001641 CONDUIT    147.20     0  03:05      0.19    0.20    1.00
  YS02001641YS02001644 CONDUIT    148.79     0  03:04      0.19    0.48    1.00
  YS02001647YS02001649 CONDUIT    228.97     0  03:02      0.30    0.12    0.99
  YS02006553YS02006556 CONDUIT    228.83     0  02:54      0.33    0.20    0.83
  YS02006556YS02006558 CONDUIT    228.87     0  02:54      0.32    0.18    0.86
  YSB6556YSB1171       CONDUIT     13.83     0  02:18      0.06    0.01    0.58
  YS02001907YS02006553 CONDUIT    228.74     0  02:54      0.27    0.27    0.95
  YS02006558YS02006561 CONDUIT    339.67     0  02:50      2.36    0.75    0.51
  YS02001633YS02163601 CONDUIT    148.69     0  02:48      0.19    0.16    1.00
  YS02001644YS02001647 CONDUIT    219.99     0  03:04      0.29    0.13    0.99
  YS02001745YS02001748 CONDUIT     76.78     0  02:58      1.42    0.03    0.26
  YS02001748YS02001751 CONDUIT    105.34     0  03:38      1.11    0.05    0.60
  YS02001751YS02001754 CONDUIT     90.98     0  02:25      0.98    0.04    0.82
  YS02001754YS02001757 CONDUIT     94.94     0  03:06      0.33    0.04    0.99
  YS02001882YS02001884 CONDUIT      4.34     0  02:09      0.06    0.00    0.48
  YS02001884YS02001887 CONDUIT     12.00     0  02:06      0.06    0.02    0.57
  YS02001890YS02001895 CONDUIT    127.60     0  02:43      0.29    0.06    0.54
  YS02001895YS02001898 CONDUIT    127.67     0  02:43      0.49    0.22    0.40
  YS02001898YS02001901 CONDUIT    127.49     0  02:43      0.34    0.08    0.48
  YS02001901YS02001904 CONDUIT    126.94     0  02:42      0.30    0.20    0.54
  YS02001904YS02001907 CONDUIT    126.79     0  02:43      0.22    0.04    0.69
  YS02001887YS02001890 CONDUIT    127.95     0  02:42      0.25    0.22    0.63
  YS02001652YS02001649 CONDUIT    126.90     0  02:37      0.33    0.06    1.00
  YS02001655YS02001652 CONDUIT    109.06     0  02:37      1.05    0.05    0.85
  YS02001658YS02001655 CONDUIT    114.14     0  02:46      1.28    0.05    0.59
  YS02001661YS02001658 CONDUIT     90.67     0  02:43      1.47    0.04    0.27
  YS02001664YS02001661 CONDUIT     90.67     0  02:43      1.14    0.03    0.16
  YSB1154YSB6556       CONDUIT     13.57     0  02:17      0.19    0.02    0.47
  YSB1174YSB1171       CONDUIT     12.65     0  02:10      0.06    0.02    0.59
  YSB1171HS02004479    CONDUIT     25.28     0  02:18      0.54    0.02    0.46
  HS02004881HS02006253 CONDUIT     41.34     0  02:17      1.70    0.01    0.22
  YS02001793JiankangQianchi CONDUIT    337.21     0  02:52     13.02    0.03    0.56
  YS02001757CaochengTiaoxuchi CONDUIT    563.54     0  03:01      1.17    0.25    0.78
  WSF200WS02003060     CONDUIT    470.48     0  02:49      1.78    0.10    0.31
  1                    CONDUIT    833.64     0  02:55      3.17    0.29    0.37
  2                    CONDUIT     98.50     0  03:46      4.83    0.24    0.33
  3                    CONDUIT    496.72     0  04:00     10.14    0.79    0.68
  4                    CONDUIT      0.00     0  00:00      0.00    0.00    0.00
  CC-Pump-1            PUMP       200.00     0  03:40              1.00
  CC-Pump-2            PUMP       200.00     0  02:30              1.00
  JK-Pump-1            PUMP       300.00     0  04:00              1.00
  JK-Pump-2            PUMP       300.00     0  02:31              1.00
  XR-Pump-1            PUMP        95.00     0  00:50              1.00
  XR-Pump-2            PUMP        95.00     0  00:00              1.00
  XR-Pump-3            PUMP        95.00     0  00:00              1.00
  XR-Pump-4            PUMP        95.00     0  00:00              1.00
  
  
  ***************************
  Flow Classification Summary
  ***************************
  
  -------------------------------------------------------------------------------------
                      Adjusted    ---------- Fraction of Time in Flow Class ---------- 
                       /Actual         Up    Down  Sub   Sup   Up    Down  Norm  Inlet 
  Conduit               Length    Dry  Dry   Dry   Crit  Crit  Crit  Crit  Ltd   Ctrl  
  -------------------------------------------------------------------------------------
  WS02003066WSF200        1.00   0.04  0.00  0.00  0.00  0.96  0.00  0.00  0.84  0.00
  WS02006287WS02006284    1.00   0.04  0.02  0.00  0.71  0.24  0.00  0.00  0.77  0.00
  WS02006284WS02006280    1.00   0.04  0.00  0.00  0.00  0.00  0.00  0.96  0.00  0.00
  WS02006280WS02006229    1.00   0.04  0.00  0.00  0.00  0.00  0.00  0.96  0.00  0.00
  WS02006229WS02006228    1.00   0.00  0.00  0.00  1.00  0.00  0.00  0.00  0.00  0.00
  WS02006256WS02006235    1.00   0.00  0.00  0.00  1.00  0.00  0.00  0.00  0.00  0.00
  WS02006253WS02006251    1.00   0.02  0.01  0.00  0.96  0.00  0.00  0.00  0.00  0.00
  WS02006252WS02006251    1.00   0.08  0.00  0.00  0.00  0.00  0.92  0.00  0.00  0.00
  WS02006251WS02006249    1.00   0.00  0.00  0.00  1.00  0.00  0.00  0.00  0.27  0.00
  WS02006249WS02006248    1.00   0.00  0.00  0.00  0.91  0.00  0.08  0.00  0.00  0.00
  WS02006248WS02006247    1.00   0.00  0.00  0.00  0.98  0.00  0.00  0.02  0.17  0.00
  WS02006247WS02006245    1.00   0.00  0.00  0.00  0.98  0.00  0.00  0.01  0.00  0.00
  WS02006245WS02006243    1.00   0.01  0.00  0.00  0.95  0.00  0.00  0.04  0.01  0.00
  WS02006243WS02006242    1.00   0.01  0.00  0.00  0.99  0.00  0.00  0.00  0.23  0.00
  WS02006242WS02006240    1.00   0.01  0.00  0.00  0.99  0.00  0.00  0.00  0.00  0.00
  WS02006240WS02006239    1.00   0.00  0.00  0.00  0.96  0.00  0.00  0.04  0.01  0.00
  WS02006239WS02006238    1.00   0.00  0.00  0.00  1.00  0.00  0.00  0.00  0.00  0.00
  WS02006238WS02006235    1.00   0.00  0.00  0.00  1.00  0.00  0.00  0.00  0.00  0.00
  WS02006235WS02006234    1.00   0.00  0.00  0.00  0.96  0.00  0.04  0.00  0.00  0.00
  WS02006234WS02006232    1.00   0.00  0.00  0.00  1.00  0.00  0.00  0.00  0.00  0.00
  WS02006232WS02006231    1.00   0.00  0.00  0.00  0.99  0.00  0.00  0.00  0.00  0.00
  WS02006231WS02006230    1.00   0.01  0.00  0.00  0.71  0.00  0.28  0.00  0.00  0.00
  WS02006230WS02006229    1.00   0.00  0.00  0.00  0.99  0.00  0.00  0.01  0.00  0.00
  WS02006228WS02006109    1.00   0.00  0.00  0.00  1.00  0.00  0.00  0.00  0.00  0.00
  WS02006116WS02004401    1.00   0.02  0.00  0.00  0.98  0.00  0.00  0.00  0.00  0.00
  WS02006115WS02006116    1.00   0.02  0.00  0.00  0.97  0.00  0.00  0.00  0.00  0.00
  WS02006113WS02006111    1.00   0.01  0.00  0.00  0.00  0.99  0.00  0.00  0.11  0.00
  WS02006112WS02006115    1.00   0.02  0.01  0.00  0.97  0.00  0.00  0.00  0.00  0.00
  WS02006111WS02006112    1.00   0.02  0.00  0.00  0.98  0.00  0.00  0.00  0.95  0.00
  WS02006110WS02006113    1.00   0.00  0.01  0.00  0.99  0.00  0.00  0.00  0.00  0.00
  WS02006109WS02006110    1.00   0.00  0.00  0.00  1.00  0.00  0.00  0.00  0.00  0.00
  WS02004411WS02004412    1.00   0.03  0.00  0.00  0.97  0.00  0.00  0.00  0.00  0.00
  WS02004401WS02004402    1.00   0.03  0.00  0.00  0.97  0.00  0.00  0.00  0.00  0.00
  WS02004413WS02003067    1.00   0.03  0.01  0.00  0.00  0.00  0.96  0.00  0.00  0.00
  WS02004412WS02004413    1.00   0.03  0.00  0.00  0.97  0.00  0.00  0.00  0.01  0.00
  WS02004410WS02004411    1.00   0.03  0.00  0.00  0.97  0.00  0.00  0.00  0.00  0.00
  WS02004409WS02004410    1.00   0.03  0.00  0.00  0.97  0.00  0.00  0.00  0.02  0.00
  WS02004407WS02004409    1.00   0.03  0.00  0.00  0.97  0.00  0.00  0.00  0.92  0.00
  WS02004406WS02004407    1.00   0.00  0.03  0.00  0.97  0.00  0.00  0.00  0.00  0.00
  WS02004405WS02004406    1.00   0.00  0.00  0.00  1.00  0.00  0.00  0.00  0.03  0.00
  WS02004404WS02004405    1.00   0.00  0.00  0.00  1.00  0.00  0.00  0.00  0.00  0.00
  WS02004403WS02004404    1.00   0.00  0.03  0.00  0.97  0.00  0.00  0.00  0.00  0.00
  WS02004402WS02004403    1.00   0.03  0.00  0.00  0.97  0.00  0.00  0.00  0.00  0.00
  WS02004139WS02001211    1.00   0.00  0.00  0.00  1.00  0.00  0.00  0.00  0.00  0.00
  WS02004138WS02004139    1.00   0.00  0.00  0.00  1.00  0.00  0.00  0.00  1.00  0.00
  WS02003067WS02003066    1.00   0.04  0.00  0.00  0.96  0.00  0.00  0.00  0.00  0.00
  WS02001213WS02003059    1.00   0.00  0.00  0.00  1.00  0.00  0.00  0.00  0.00  0.00
  WS02001212WS02001213    1.00   0.00  0.00  0.00  0.90  0.00  0.10  0.00  0.00  0.00
  WS02001211WS02001212    1.00   0.00  0.00  0.00  1.00  0.00  0.00  0.00  0.00  0.00
  WS02003072WS02003073    1.00   0.00  0.00  0.00  0.00  0.00  0.00  1.00  0.00  0.00
  WS02003069WS02003072    1.00   0.00  0.00  0.00  1.00  0.00  0.00  0.00  0.25  0.00
  WS02003060WS02003069    1.00   0.00  0.00  0.00  1.00  0.00  0.00  0.00  0.16  0.00
  WS02003059WS02003060    1.00   0.00  0.00  0.00  1.00  0.00  0.00  0.00  0.01  0.00
  HS02004901HS02004770    1.00   0.04  0.00  0.00  0.96  0.00  0.00  0.00  0.02  0.00
  HS02004876HS02004881    1.00   0.00  0.00  0.00  1.00  0.00  0.00  0.00  0.00  0.00
  HS02004870HS02004876    1.00   0.00  0.00  0.00  1.00  0.00  0.00  0.00  0.95  0.00
  HS02004842HS02004848    1.00   0.00  0.04  0.00  0.96  0.00  0.00  0.00  0.69  0.00
  HS02004837HS02004842    1.00   0.00  0.00  0.00  1.00  0.00  0.00  0.00  0.11  0.00
  HS02004830HS02004837    1.00   0.00  0.00  0.00  1.00  0.00  0.00  0.00  0.99  0.00
  HS02004824HS02004830    1.00   0.00  0.00  0.00  1.00  0.00  0.00  0.00  0.00  0.00
  HS02004817HS02004824    1.00   0.00  0.00  0.00  1.00  0.00  0.00  0.00  1.00  0.00
  HS02004770HS02004777    1.00   0.00  0.04  0.00  0.96  0.00  0.00  0.00  0.07  0.00
  HS02004799HS02004480    1.00   0.00  0.01  0.00  0.95  0.00  0.04  0.00  0.00  0.00
  HS02004792HS02004799    1.00   0.00  0.00  0.00  1.00  0.00  0.00  0.00  0.98  0.00
  HS02004788HS02004792    1.00   0.00  0.00  0.00  1.00  0.00  0.00  0.00  0.98  0.00
  HS02004785HS02004788    1.00   0.00  0.00  0.00  1.00  0.00  0.00  0.00  0.00  0.00
  HS02004777HS02004785    1.00   0.00  0.00  0.00  1.00  0.00  0.00  0.00  0.20  0.00
  HS02004480HS02004478    1.00   0.05  0.00  0.00  0.75  0.00  0.00  0.20  0.00  0.00
  HS02004479HS02004480    1.00   0.01  0.00  0.00  0.99  0.00  0.00  0.00  0.16  0.00
  HS02004862HS02004870    1.00   0.00  0.00  0.00  1.00  0.00  0.00  0.00  0.06  0.00
  HS02004848HS02004852    1.00   0.04  0.00  0.00  0.96  0.00  0.00  0.00  0.71  0.00
  HS02004856HS02004862    1.00   0.00  0.07  0.00  0.93  0.00  0.00  0.00  0.74  0.00
  HS02004852HS02004856    1.00   0.04  0.01  0.00  0.95  0.00  0.00  0.00  0.83  0.00
  HS02004802HS02004478    1.00   0.04  0.00  0.00  0.95  0.00  0.00  0.00  0.01  0.00
  HS02004478WS02006287    1.00   0.05  0.00  0.00  0.88  0.07  0.00  0.00  0.77  0.00
  HS02004817HS02004807    1.00   0.00  0.04  0.00  0.96  0.00  0.00  0.00  0.00  0.00
  HS02004807HS02004802    1.00   0.04  0.00  0.00  0.95  0.00  0.00  0.00  0.01  0.00
  YS02001759YS02001757    1.00   0.00  0.00  0.00  1.00  0.00  0.00  0.00  0.17  0.00
  YS02001762YS02001759    1.00   0.00  0.00  0.00  1.00  0.00  0.00  0.00  0.04  0.00
  YS02001765YS02001762    1.00   0.00  0.00  0.00  1.00  0.00  0.00  0.00  0.22  0.00
  YS02001770YS02001767    1.00   0.00  0.00  0.00  1.00  0.00  0.00  0.00  0.00  0.00
  YS02001774YS02001770    1.00   0.00  0.05  0.00  0.95  0.00  0.00  0.00  0.07  0.00
  YS02001779YS02001774    1.00   0.00  0.00  0.00  1.00  0.00  0.00  0.00  0.26  0.00
  YS02001649YS02001757    1.00   0.00  0.00  0.00  1.00  0.00  0.00  0.00  0.19  0.00
  YS02001767YS02001765    1.00   0.00  0.00  0.00  1.00  0.00  0.00  0.00  0.01  0.00
  YS02006561YS02001783    1.00   0.07  0.00  0.00  0.00  0.93  0.00  0.00  0.73  0.00
  YS02001783YS02001784    1.00   0.00  0.07  0.00  0.93  0.00  0.00  0.00  0.00  0.00
  YS02001784YS02001785    1.00   0.00  0.00  0.00  1.00  0.00  0.00  0.00  0.25  0.00
  YS02001788YS02001790    1.00   0.00  0.00  0.00  0.07  0.93  0.00  0.00  0.76  0.00
  YS02001790YS02001791    1.00   0.00  0.00  0.00  0.00  1.00  0.00  0.00  0.55  0.00
  YS02001791YS02001793    1.00   0.00  0.00  0.00  0.00  1.00  0.00  0.00  0.00  0.00
  YS02001910YS02001907    1.00   0.00  0.00  0.00  0.99  0.00  0.00  0.00  0.13  0.00
  YS02001786YS02001788    1.00   0.00  0.00  0.00  0.07  0.93  0.00  0.00  0.00  0.00
  YS02001915YS02001910    1.00   0.00  0.00  0.00  1.00  0.00  0.00  0.00  0.24  0.00
  YS02001918YS02001915    1.00   0.00  0.00  0.00  1.00  0.00  0.00  0.00  0.82  0.00
  YS02001923YS02001920    1.00   0.00  0.00  0.00  1.00  0.00  0.00  0.00  1.00  0.00
  YS02001926YS02001923    1.00   0.00  0.03  0.00  0.00  0.00  0.97  0.00  0.00  0.00
  YS02001929YS02001926    1.00   0.00  0.04  0.00  0.96  0.00  0.00  0.00  0.87  0.00
  YS02001920YS02001918    1.00   0.00  0.00  0.00  1.00  0.00  0.00  0.00  0.00  0.00
  YS02001629YS02163301    1.00   0.06  0.00  0.00  0.94  0.00  0.00  0.00  0.00  0.00
  YS02001619YS02001622    1.00   0.04  0.00  0.00  0.96  0.00  0.00  0.00  0.00  0.00
  YS02001622YS02001625    1.00   0.04  0.00  0.00  0.96  0.00  0.00  0.00  0.13  0.00
  YS02001625YS02001629    1.00   0.04  0.03  0.00  0.92  0.00  0.01  0.00  0.00  0.00
  YS02163301YS02001633    1.00   0.00  0.06  0.00  0.94  0.00  0.00  0.00  0.00  0.00
  YS02163601YS02164001    1.00   0.00  0.03  0.00  0.97  0.00  0.00  0.00  0.00  0.00
  YS02164001YS02001641    1.00   0.00  0.03  0.00  0.97  0.00  0.00  0.00  0.07  0.00
  YS02001641YS02001644    1.00   0.00  0.00  0.00  1.00  0.00  0.00  0.00  0.00  0.00
  YS02001647YS02001649    1.00   0.00  0.07  0.00  0.93  0.00  0.00  0.00  0.01  0.00
  YS02006553YS02006556    1.00   0.00  0.00  0.00  1.00  0.00  0.00  0.00  0.03  0.00
  YS02006556YS02006558    1.00   0.00  0.00  0.00  1.00  0.00  0.00  0.00  0.00  0.00
  YSB6556YSB1171          1.00   0.01  0.03  0.00  0.96  0.00  0.00  0.00  0.00  0.00
  YS02001907YS02006553    1.00   0.00  0.00  0.00  1.00  0.00  0.00  0.00  0.00  0.00
  YS02006558YS02006561    1.00   0.07  0.00  0.00  0.00  0.93  0.00  0.00  0.70  0.00
  YS02001633YS02163601    1.00   0.00  0.00  0.00  1.00  0.00  0.00  0.00  0.19  0.00
  YS02001644YS02001647    1.00   0.00  0.07  0.00  0.93  0.00  0.00  0.00  0.00  0.00
  YS02001745YS02001748    1.00   0.00  0.00  0.00  0.86  0.03  0.00  0.11  0.68  0.00
  YS02001748YS02001751    1.00   0.00  0.00  0.00  0.98  0.02  0.00  0.00  0.24  0.00
  YS02001751YS02001754    1.00   0.00  0.00  0.00  0.93  0.00  0.00  0.07  0.02  0.00
  YS02001754YS02001757    1.00   0.00  0.00  0.00  1.00  0.00  0.00  0.00  0.26  0.00
  YS02001882YS02001884    1.00   0.05  0.00  0.00  0.94  0.00  0.00  0.00  0.00  0.00
  YS02001884YS02001887    1.00   0.03  0.01  0.00  0.96  0.00  0.00  0.00  0.00  0.00
  YS02001890YS02001895    1.00   0.00  0.06  0.00  0.94  0.00  0.00  0.00  0.00  0.00
  YS02001895YS02001898    1.00   0.06  0.00  0.00  0.93  0.00  0.01  0.00  0.00  0.00
  YS02001898YS02001901    1.00   0.06  0.00  0.00  0.94  0.00  0.00  0.00  0.02  0.00
  YS02001901YS02001904    1.00   0.06  0.00  0.00  0.94  0.00  0.00  0.00  0.00  0.00
  YS02001904YS02001907    1.00   0.00  0.06  0.00  0.94  0.00  0.00  0.00  0.00  0.00
  YS02001887YS02001890    1.00   0.00  0.00  0.00  0.99  0.00  0.01  0.00  0.00  0.00
  YS02001652YS02001649    1.00   0.00  0.00  0.00  1.00  0.00  0.00  0.00  0.26  0.00
  YS02001655YS02001652    1.00   0.00  0.00  0.00  0.93  0.00  0.00  0.07  0.02  0.00
  YS02001658YS02001655    1.00   0.00  0.05  0.00  0.92  0.03  0.00  0.00  0.11  0.00
  YS02001661YS02001658    1.00   0.05  0.00  0.00  0.87  0.08  0.00  0.00  0.64  0.00
  YS02001664YS02001661    1.00   0.04  0.00  0.00  0.76  0.20  0.00  0.00  0.86  0.00
  YSB1154YSB6556          1.00   0.04  0.00  0.00  0.96  0.00  0.00  0.00  0.02  0.00
  YSB1174YSB1171          1.00   0.02  0.01  0.00  0.96  0.00  0.00  0.00  0.00  0.00
  YSB1171HS02004479       1.00   0.01  0.00  0.00  0.97  0.00  0.00  0.01  0.13  0.00
  HS02004881HS02006253    1.00   0.02  0.00  0.00  0.80  0.02  0.00  0.16  0.62  0.00
  YS02001793JiankangQianchi    1.00   0.00  0.00  0.00  0.30  0.70  0.00  0.00  0.32  0.00
  YS02001757CaochengTiaoxuchi    1.00   0.00  0.08  0.00  0.92  0.00  0.00  0.00  0.00  0.00
  WSF200WS02003060        1.00   0.00  0.04  0.00  0.65  0.31  0.00  0.00  0.26  0.00
  1                       1.00   0.00  0.00  0.00  0.00  1.00  0.00  0.00  0.39  0.00
  2                       1.00   0.65  0.00  0.00  0.00  0.34  0.00  0.00  0.09  0.00
  3                       1.00   0.15  0.00  0.00  0.00  0.85  0.00  0.00  0.08  0.00
  4                       1.00   1.00  0.00  0.00  0.00  0.00  0.00  0.00  0.00  0.00
  
  
  *************************
  Conduit Surcharge Summary
  *************************
  
  ----------------------------------------------------------------------------
                                                           Hours        Hours 
                         --------- Hours Full --------   Above Full   Capacity
  Conduit                Both Ends  Upstream  Dnstream   Normal Flow   Limited
  ----------------------------------------------------------------------------
  WS02006229WS02006228        1.29      1.83      1.29      4.94         1.29
  WS02006256WS02006235        5.79      5.79      7.65      2.79         0.01
  WS02006252WS02006251        1.30      1.30      2.45      2.16         0.01
  WS02006251WS02006249        0.01      0.01      0.01      1.24         0.01
  WS02006249WS02006248        0.01      0.01      0.01      4.62         0.01
  WS02006247WS02006245        0.01      0.01      0.01      4.91         0.01
  WS02006245WS02006243        0.01      0.01      0.01      0.04         0.01
  WS02006243WS02006242        0.01      0.01      0.70      0.01         0.01
  WS02006242WS02006240        0.01      0.01      1.28      2.47         0.01
  WS02006240WS02006239        0.01      0.01      0.01      0.07         0.01
  WS02006239WS02006238        0.87      0.87      0.98      0.41         0.29
  WS02006238WS02006235        0.74      0.74      1.58      0.01         0.01
  WS02006235WS02006234        0.01      0.01      0.41      5.81         0.01
  WS02006234WS02006232        0.01      0.01      1.96      0.01         0.01
  WS02006232WS02006231        0.01      0.01      1.96      0.01         0.01
  WS02006231WS02006230        0.01      0.01      0.01      5.82         0.01
  WS02006230WS02006229        3.40      4.71      3.40      5.90         3.40
  WS02006228WS02006109        1.52      2.74      1.52      5.44         1.52
  WS02006111WS02006112        0.01      0.01      5.18      0.01         0.01
  WS02006110WS02006113        0.01      0.01      2.30      0.01         0.01
  WS02006109WS02006110        0.01      0.01      2.74      0.01         0.01
  WS02004404WS02004405        0.01      0.01      0.01      5.63         0.01
  WS02003072WS02003073        0.01      0.01      0.01      5.39         0.01
  YS02001759YS02001757        4.41      4.41      5.10      0.01         0.01
  YS02001762YS02001759        4.22      4.22      4.41      0.01         0.01
  YS02001765YS02001762        3.67      3.67      4.22      0.01         0.01
  YS02001770YS02001767        3.02      3.02      3.16      0.01         0.01
  YS02001774YS02001770        2.40      2.40      4.04      0.01         0.01
  YS02001779YS02001774        0.01      0.01      4.04      0.01         0.01
  YS02001649YS02001757        4.27      4.27      5.10      0.01         0.01
  YS02001767YS02001765        3.16      3.16      3.67      0.01         0.01
  YS02001629YS02163301        1.22      1.22      2.62      0.01         0.01
  YS02163301YS02001633        2.62      2.62      3.69      0.01         0.01
  YS02163601YS02164001        3.65      3.65      4.25      0.01         0.01
  YS02164001YS02001641        3.65      3.65      3.79      0.01         0.01
  YS02001641YS02001644        3.78      3.79      3.86      0.01         0.09
  YS02001647YS02001649        0.01      0.01      4.27      0.01         0.01
  YS02001633YS02163601        3.53      3.53      4.25      0.01         0.01
  YS02001644YS02001647        0.01      0.01      3.86      0.01         0.01
  YS02001754YS02001757        0.01      0.01      5.10      0.01         0.01
  YS02001652YS02001649        0.01      0.01      4.27      0.01         0.01
  YS02001793JiankangQianchi        0.01      0.01      1.59      0.01         0.01
  YS02001757CaochengTiaoxuchi        0.01      0.01      5.10      0.01         0.01
  
  
  ***************
  Pumping Summary
  ***************
  
  ---------------------------------------------------------------------------------------------------------
                                                  Min       Avg       Max     Total     Power    % Time Off
                        Percent   Number of      Flow      Flow      Flow    Volume     Usage    Pump Curve
  Pump                 Utilized   Start-Ups       LPS       LPS       LPS  10^6 ltr     Kw-hr    Low   High
  ---------------------------------------------------------------------------------------------------------
  CC-Pump-1               59.57           5      0.00    153.10    200.00     2.580      8.89    0.0   17.6
  CC-Pump-2               62.47           6      0.00    130.32    200.00     2.344      8.47    0.0   25.8
  JK-Pump-1               74.47           5      0.00    116.37    300.00     1.825     32.64    0.0    0.0
  JK-Pump-2               85.10           6      0.00    133.24    300.00     2.443     42.62    0.0    0.0
  XR-Pump-1               87.22           7      0.00     61.52     95.00     1.624     15.22    0.0    0.0
  XR-Pump-2               80.84           6      0.00     74.17     95.00     1.738     17.21    0.0    0.0
  XR-Pump-3               78.71           9      0.00     67.35     95.00     1.511     13.73    0.0    0.0
  XR-Pump-4               89.34          12      0.00     62.55     95.00     1.596     14.89    0.0    0.0
  

  Analysis begun on:  Fri Dec 24 17:58:34 2021
  Analysis ended on:  Fri Dec 24 17:58:37 2021
  Total elapsed time: 00:00:03