
  EPA STORM WATER MANAGEMENT MODEL - VERSION 5.1 (Build 5.3.0.dev0)
  --------------------------------------------------------------

  WARNING 04: minimum elevation drop used for Conduit WS02004404WS02004405
  WARNING 03: negative offset ignored for Link YS02001904YS02001907
  
  *********************************************************
  NOTE: The summary statistics displayed in this report are
  based on results found at every computational time step,  
  not just on results from each reporting time step.
  *********************************************************
  
  ****************
  Analysis Options
  ****************
  Flow Units ............... LPS
  Process Models:
    Rainfall/Runoff ........ YES
    RDII ................... NO
    Snowmelt ............... NO
    Groundwater ............ NO
    Flow Routing ........... YES
    Ponding Allowed ........ NO
    Water Quality .......... NO
  Infiltration Method ...... HORTON
  Flow Routing Method ...... DYNWAVE
  Surcharge Method ......... EXTRAN
  Starting Date ............ 08/28/2015 08:00:00
  Ending Date .............. 08/28/2015 15:50:00
  Antecedent Dry Days ...... 8.0
  Report Time Step ......... 00:01:00
  Wet Time Step ............ 00:01:00
  Dry Time Step ............ 00:01:00
  Routing Time Step ........ 5.00 sec
  Variable Time Step ....... YES
  Maximum Trials ........... 8
  Number of Threads ........ 4
  Head Tolerance ........... 0.001500 m
  
  
  **************************        Volume         Depth
  Runoff Quantity Continuity     hectare-m            mm
  **************************     ---------       -------
  Total Precipitation ......         2.455         5.375
  Evaporation Loss .........         0.000         0.000
  Infiltration Loss ........         0.614         1.344
  Surface Runoff ...........         0.980         2.145
  Final Storage ............         0.862         1.887
  Continuity Error (%) .....        -0.018
  
  
  **************************        Volume        Volume
  Flow Routing Continuity        hectare-m      10^6 ltr
  **************************     ---------     ---------
  Dry Weather Inflow .......         0.616         6.165
  Wet Weather Inflow .......         0.979         9.790
  Groundwater Inflow .......         0.000         0.000
  RDII Inflow ..............         0.000         0.000
  External Inflow ..........         0.102         1.024
  External Outflow .........         1.714        17.136
  Flooding Loss ............         0.000         0.000
  Evaporation Loss .........         0.000         0.000
  Exfiltration Loss ........         0.000         0.000
  Initial Stored Volume ....         0.076         0.761
  Final Stored Volume ......         0.197         1.973
  Continuity Error (%) .....        -7.725
  
  
  *************************
  Highest Continuity Errors
  *************************
  Node JK-storage (-43.64%)
  Node HS02004842 (30.51%)
  Node YS02001884 (24.93%)
  Node YSB1171 (7.78%)
  Node YS02001774 (6.82%)
  
  
  ***************************
  Time-Step Critical Elements
  ***************************
  Link WS02006252WS02006251 (59.32%)
  Link 3 (25.60%)
  Link WS02006238WS02006235 (7.17%)
  Link WS02006280WS02006229 (2.22%)
  Link WS02006229WS02006228 (1.56%)
  
  
  ********************************
  Highest Flow Instability Indexes
  ********************************
  Link WS02006113WS02006111 (39)
  Link WS02006111WS02006112 (23)
  Link WS02006110WS02006113 (3)
  Link YS02001754YS02001757 (2)
  Link YS02001762YS02001759 (2)
  
  
  *************************
  Routing Time Step Summary
  *************************
  Minimum Time Step           :     0.50 sec
  Average Time Step           :     0.87 sec
  Maximum Time Step           :     5.00 sec
  Percent in Steady State     :    -0.00
  Average Iterations per Step :     2.02
  Percent Not Converging      :     0.07
  
  
  ***************************
  Subcatchment Runoff Summary
  ***************************
  
  ------------------------------------------------------------------------------------------------------------------------------
                            Total      Total      Total      Total     Imperv       Perv      Total       Total     Peak  Runoff
                           Precip      Runon       Evap      Infil     Runoff     Runoff     Runoff      Runoff   Runoff   Coeff
  Subcatchment                 mm         mm         mm         mm         mm         mm         mm    10^6 ltr      LPS
  ------------------------------------------------------------------------------------------------------------------------------
  sub0                       5.37       0.00       0.00       0.38       3.73       0.00       3.73        0.00     1.27   0.695
  sub1                       5.37       0.00       0.00       0.59       3.53       0.00       3.53        0.02     6.53   0.657
  sub2                       5.37       0.00       0.00       1.99       2.48       0.00       2.48        0.02     5.75   0.462
  sub3                       5.37       0.00       0.00       1.99       2.45       0.00       2.45        0.06    11.75   0.455
  sub4                       5.37       0.00       0.00       0.59       3.39       0.00       3.39        0.07    13.11   0.632
  sub5                       5.37       0.00       0.00       0.38       3.69       0.00       3.69        0.04    11.61   0.686
  sub7                       5.37       0.00       0.00       0.48       3.64       0.00       3.64        0.01     4.14   0.677
  sub8                       5.37       0.00       0.00       0.48       3.63       0.00       3.63        0.02     7.27   0.675
  sub9                       5.37       0.00       0.00       0.48       3.63       0.00       3.63        0.02     5.38   0.675
  sub10                      5.37       0.00       0.00       0.43       3.65       0.00       3.65        0.04    11.61   0.680
  sub11                      5.37       0.00       0.00       0.43       3.67       0.00       3.67        0.04    13.69   0.683
  sub12                      5.37       0.00       0.00       0.70       3.49       0.00       3.49        0.03    11.71   0.649
  sub14                      5.37       0.00       0.00       0.48       3.62       0.00       3.62        0.03    10.51   0.674
  sub15                      5.37       0.00       0.00       1.61       2.78       0.00       2.78        0.05    14.25   0.518
  sub16                      5.37       0.00       0.00       1.77       2.68       0.00       2.68        0.03    10.26   0.499
  sub17                      5.37       0.00       0.00       1.72       2.72       0.00       2.72        0.02     8.28   0.506
  sub22                      5.37       0.00       0.00       2.31       2.28       0.00       2.28        0.14    46.88   0.423
  sub23                      5.37       0.00       0.00       1.99       2.52       0.00       2.52        0.12    39.98   0.468
  sub60                      5.37       0.00       0.00       0.64       2.37       0.00       2.37        0.72    64.64   0.442
  sub61                      5.37       0.00       0.00       0.91       2.56       0.00       2.56        0.79    81.69   0.477
  sub62                      5.37       0.00       0.00       0.43       2.74       0.00       2.74        0.84    83.30   0.510
  sub63                      5.37       0.00       0.00       1.56       2.29       0.00       2.29        0.69    76.49   0.426
  sub64                      5.37       0.00       0.00       0.81       2.27       0.00       2.27        0.69    61.36   0.422
  sub65                      5.37       0.00       0.00       0.70       2.29       0.00       2.29        0.71    62.22   0.427
  sub66                      5.37       0.00       0.00       1.56       1.98       0.00       1.98        0.61    56.37   0.369
  sub67                      5.37       0.00       0.00       0.43       3.04       0.00       3.04        0.94   107.71   0.565
  sub68                      5.37       0.00       0.00       0.75       2.73       0.00       2.73        0.84    90.50   0.508
  sub69                      5.37       0.00       0.00       0.81       2.97       0.00       2.97        0.69    90.66   0.553
  sub70                      5.37       3.03       0.00       2.86       3.59       0.00       3.59        0.82    70.94   0.427
  sub71                      5.37       0.00       0.00       0.43       2.61       0.00       2.61        0.62    57.99   0.486
  sub72                      5.37       0.00       0.00       0.38       1.81       0.00       1.81        0.37    26.99   0.337
  sub73                      5.37       3.49       0.00       3.01       3.60       0.00       3.60        0.85    60.66   0.406
  sub74                      5.37       0.00       0.00       4.03       0.90       0.00       0.90        0.36    50.75   0.167
  
  
  ******************
  Node Depth Summary
  ******************
  
  ---------------------------------------------------------------------------------
                                 Average  Maximum  Maximum  Time of Max    Reported
                                   Depth    Depth      HGL   Occurrence   Max Depth
  Node                 Type       Meters   Meters   Meters  days hr:min      Meters
  ---------------------------------------------------------------------------------
  WS02001211           JUNCTION     0.66     0.77     5.61     0  03:21        0.77
  WS02001212           JUNCTION     0.38     0.48     5.55     0  03:21        0.48
  WS02001213           JUNCTION     0.62     0.73     5.49     0  03:22        0.73
  WS02003069           JUNCTION     0.44     0.54     5.13     0  03:23        0.54
  WS02003072           JUNCTION     0.51     0.60     4.98     0  03:24        0.60
  WS02003073           JUNCTION     0.30     0.37     4.43     0  03:24        0.37
  WS02003060           JUNCTION     0.39     0.48     5.41     0  03:22        0.48
  WS02003066           JUNCTION     0.23     0.29     5.84     0  02:46        0.29
  WS02003059           JUNCTION     0.68     0.78     5.47     0  03:22        0.78
  WS02003067           JUNCTION     0.58     0.69     6.01     0  02:45        0.69
  WS02004401           JUNCTION     0.68     0.82     6.82     0  02:42        0.82
  WS02004402           JUNCTION     0.71     0.85     6.81     0  02:42        0.85
  WS02004403           JUNCTION     0.73     0.87     6.80     0  02:42        0.87
  WS02004404           JUNCTION     0.80     0.94     6.79     0  02:42        0.94
  WS02004406           JUNCTION     0.81     0.94     6.77     0  02:43        0.94
  WS02004409           JUNCTION     0.50     0.64     6.41     0  02:44        0.64
  WS02004410           JUNCTION     0.51     0.66     6.38     0  02:44        0.66
  WS02004411           JUNCTION     0.53     0.67     6.35     0  02:45        0.67
  WS02004412           JUNCTION     0.54     0.68     6.32     0  02:45        0.68
  WS02004413           JUNCTION     0.70     0.84     6.31     0  02:45        0.84
  WS02004405           JUNCTION     0.80     0.94     6.79     0  02:42        0.94
  WS02006109           JUNCTION     0.76     0.93     7.55     0  02:38        0.93
  WS02006110           JUNCTION     0.75     0.89     7.48     0  02:38        0.89
  WS02006111           JUNCTION     0.22     0.28     6.98     0  02:41        0.28
  WS02006112           JUNCTION     0.85     1.02     6.90     0  02:41        1.01
  WS02006113           JUNCTION     0.34     0.44     7.33     0  02:41        0.44
  WS02006115           JUNCTION     0.57     0.72     6.86     0  02:41        0.72
  WS02006116           JUNCTION     0.65     0.80     6.84     0  02:42        0.80
  WS02006230           JUNCTION     0.73     0.97     7.71     0  02:41        0.97
  WS02006231           JUNCTION     0.49     0.65     7.78     0  02:41        0.65
  WS02006232           JUNCTION     0.63     0.79     7.83     0  02:41        0.79
  WS02006234           JUNCTION     0.55     0.73     7.89     0  02:41        0.73
  WS02006235           JUNCTION     0.59     0.77     7.93     0  02:41        0.77
  WS02006238           JUNCTION     0.61     0.80     7.94     0  02:41        0.80
  WS02006240           JUNCTION     0.51     0.72     8.02     0  02:41        0.72
  WS02006242           JUNCTION     0.57     0.79     8.06     0  02:41        0.79
  WS02006243           JUNCTION     0.46     0.69     8.11     0  02:41        0.69
  WS02006245           JUNCTION     0.43     0.65     8.14     0  02:40        0.65
  WS02006247           JUNCTION     0.45     0.66     8.16     0  02:40        0.66
  WS02006248           JUNCTION     0.40     0.60     8.19     0  02:40        0.60
  WS02006249           JUNCTION     0.43     0.61     8.21     0  02:40        0.61
  WS02006239           JUNCTION     0.57     0.77     7.98     0  02:41        0.77
  WS02006251           JUNCTION     0.42     0.64     8.31     0  02:40        0.64
  WS02006252           JUNCTION     0.38     0.58     8.83     0  06:40        0.58
  WS02006253           JUNCTION     0.45     0.67     8.31     0  02:40        0.66
  WS02006256           JUNCTION     1.02     1.19     8.13     0  02:49        1.19
  WS02004138           JUNCTION     0.15     0.19     7.44     0  00:50        0.19
  WS02004407           JUNCTION     0.22     0.29     6.60     0  02:43        0.29
  WS02006228           JUNCTION     0.76     0.96     7.61     0  02:38        0.96
  WS02006229           JUNCTION     0.73     0.95     7.65     0  02:38        0.95
  WS02006280           JUNCTION     0.05     0.14     8.41     0  02:19        0.14
  WS02006284           JUNCTION     0.35     0.47     8.87     0  02:19        0.47
  WS02006287           JUNCTION     0.08     0.20     9.15     0  02:19        0.20
  WSF200               JUNCTION     0.22     0.30     5.53     0  02:46        0.30
  HS02004901           JUNCTION     0.11     0.22    10.04     0  02:17        0.22
  HS02004881           JUNCTION     0.01     0.02     9.05     0  02:18        0.02
  HS02004876           JUNCTION     0.03     0.10     9.13     0  02:17        0.10
  HS02004870           JUNCTION     0.01     0.04     9.32     0  02:19        0.04
  HS02004862           JUNCTION     0.01     0.04     9.43     0  02:20        0.04
  HS02004856           JUNCTION     0.07     0.10     9.53     0  02:19        0.10
  HS02004852           JUNCTION     0.01     0.02     9.54     0  02:20        0.02
  HS02004848           JUNCTION     0.01     0.02     9.63     0  02:18        0.02
  HS02004842           JUNCTION     0.33     0.36     9.63     0  02:18        0.36
  HS02004837           JUNCTION     0.03     0.05     9.63     0  02:18        0.05
  HS02004830           JUNCTION     0.04     0.06     9.53     0  02:18        0.06
  HS02004824           JUNCTION     0.02     0.04     9.44     0  02:22        0.04
  HS02004817           JUNCTION     0.42     0.51     9.36     0  02:19        0.51
  HS02004807           JUNCTION     0.11     0.19     9.36     0  02:19        0.19
  HS02004802           JUNCTION     0.15     0.23     9.36     0  02:19        0.23
  HS02004799           JUNCTION     0.10     0.24     9.45     0  02:17        0.24
  HS02004792           JUNCTION     0.02     0.09     9.61     0  02:16        0.09
  HS02004788           JUNCTION     0.02     0.07     9.97     0  02:18        0.07
  HS02004785           JUNCTION     0.03     0.13    10.03     0  02:17        0.13
  HS02004777           JUNCTION     0.13     0.24    10.04     0  02:17        0.24
  HS02004770           JUNCTION     0.10     0.21    10.04     0  02:17        0.21
  HS02004480           JUNCTION     0.06     0.19     9.43     0  02:17        0.19
  HS02004479           JUNCTION     0.10     0.22     9.43     0  02:18        0.22
  HS02004478           JUNCTION     0.05     0.12     9.34     0  02:19        0.12
  YS02001745           JUNCTION     0.08     0.11     7.63     0  03:01        0.11
  YS02001748           JUNCTION     0.19     0.35     7.43     0  03:46        0.34
  YS02001751           JUNCTION     0.37     0.55     7.43     0  03:47        0.54
  YS02001754           JUNCTION     0.62     0.83     7.44     0  03:46        0.82
  YS02001762           JUNCTION     0.82     0.99     7.39     0  03:05        0.99
  YS02001765           JUNCTION     0.77     0.94     7.39     0  03:02        0.94
  YS02001767           JUNCTION     0.73     0.90     7.39     0  03:04        0.90
  YS02001770           JUNCTION     0.73     0.89     7.39     0  03:07        0.89
  YS02001774           JUNCTION     0.80     0.97     7.39     0  03:04        0.97
  YS02001779           JUNCTION     0.55     0.71     7.39     0  03:04        0.71
  YS02001882           JUNCTION     0.27     0.42     7.13     0  02:54        0.42
  YS02001884           JUNCTION     0.37     0.52     7.13     0  02:53        0.52
  YS02001759           JUNCTION     0.85     1.03     7.39     0  03:03        1.03
  YS02001887           JUNCTION     0.44     0.60     7.13     0  02:53        0.60
  YS02001890           JUNCTION     0.47     0.63     7.13     0  02:54        0.63
  YS02001898           JUNCTION     0.24     0.38     7.12     0  02:54        0.38
  YS02001901           JUNCTION     0.36     0.51     7.12     0  02:55        0.51
  YS02001904           JUNCTION     0.34     0.48     7.11     0  02:55        0.48
  YS02001907           JUNCTION     0.67     0.83     7.12     0  02:54        0.83
  YS02001910           JUNCTION     0.46     0.61     7.12     0  02:54        0.61
  YS02001915           JUNCTION     0.26     0.40     7.12     0  02:54        0.40
  YS02001918           JUNCTION     0.07     0.09     7.16     0  03:03        0.09
  YS02001619           JUNCTION     0.33     0.47     7.40     0  03:05        0.47
  YS02001629           JUNCTION     0.68     0.85     7.40     0  03:03        0.85
  YS02001641           JUNCTION     0.78     0.96     7.40     0  03:07        0.96
  YS02001644           JUNCTION     0.79     0.96     7.40     0  03:03        0.96
  YS02001652           JUNCTION     0.63     0.83     7.43     0  03:48        0.82
  YS02001655           JUNCTION     0.40     0.58     7.43     0  03:45        0.57
  YS02001920           JUNCTION     0.17     0.19     7.20     0  03:02        0.19
  YS02001923           JUNCTION     0.06     0.08     7.34     0  03:02        0.08
  YS02001926           JUNCTION     0.13     0.16     7.61     0  03:01        0.16
  YS02001929           JUNCTION     0.06     0.08     7.77     0  03:01        0.08
  YS02001658           JUNCTION     0.14     0.27     7.41     0  03:48        0.26
  YS02001661           JUNCTION     0.14     0.19     7.59     0  02:45        0.19
  YS02001664           JUNCTION     0.06     0.11     8.03     0  02:45        0.11
  YS02001622           JUNCTION     0.35     0.49     7.40     0  03:04        0.49
  YS02001633           JUNCTION     0.77     0.95     7.41     0  03:02        0.95
  YS02001649           JUNCTION     0.83     1.01     7.40     0  03:01        1.01
  YS02001757           JUNCTION     0.95     1.13     7.39     0  03:02        1.13
  YS02001895           JUNCTION     0.24     0.38     7.13     0  02:54        0.38
  YS02001625           JUNCTION     0.63     0.80     7.40     0  03:04        0.79
  YS02163301           JUNCTION     0.71     0.89     7.41     0  03:05        0.88
  YS02163601           JUNCTION     0.82     1.00     7.40     0  03:02        1.00
  YS02164001           JUNCTION     0.76     0.94     7.40     0  03:07        0.94
  YS02001647           JUNCTION     0.62     0.79     7.40     0  03:02        0.78
  YSB1154              JUNCTION     0.24     0.37     9.43     0  02:18        0.37
  YSB6556              JUNCTION     0.13     0.26     9.43     0  02:17        0.26
  YSB1174              JUNCTION     0.19     0.32     9.43     0  02:18        0.32
  YSB1171              JUNCTION     0.39     0.52     9.43     0  02:17        0.52
  YS02006553           JUNCTION     0.67     0.83     7.11     0  02:54        0.83
  YS02006561           JUNCTION     0.13     0.21     6.87     0  02:55        0.21
  YS02006556           JUNCTION     0.65     0.80     7.11     0  02:55        0.80
  YS02006558           JUNCTION     0.69     0.84     7.11     0  02:55        0.84
  YS02001783           JUNCTION     0.23     0.37     6.51     0  02:55        0.37
  YS02001784           JUNCTION     0.26     0.40     6.47     0  02:55        0.40
  YS02001786           JUNCTION     0.22     0.34     6.37     0  02:55        0.34
  YS02001788           JUNCTION     0.16     0.25     6.23     0  02:56        0.25
  YS02001790           JUNCTION     0.20     0.31     5.95     0  02:56        0.31
  YS02001791           JUNCTION     0.13     0.20     5.67     0  02:56        0.20
  YS02001793           JUNCTION     0.08     0.13     4.96     0  02:56        0.13
  WS02004139           JUNCTION     0.60     0.72     5.63     0  03:21        0.72
  WSC                  OUTFALL      0.30     0.37     1.04     0  03:25        0.37
  3                    OUTFALL      0.08     0.19     6.19     0  02:49        0.19
  4                    OUTFALL      0.02     0.11     7.11     0  02:40        0.11
  5                    OUTFALL      0.00     0.00     5.00     0  00:00        0.00
  JK-storage           STORAGE      0.15     3.00     3.80     0  00:10        3.00
  CC-storage           STORAGE      0.18     0.33     7.33     0  05:23        0.33
  XR-storage           STORAGE      3.24     5.00     3.00     0  00:00        4.96
  
  
  *******************
  Node Inflow Summary
  *******************
  
  -------------------------------------------------------------------------------------------------
                                  Maximum  Maximum                  Lateral       Total        Flow
                                  Lateral    Total  Time of Max      Inflow      Inflow     Balance
                                   Inflow   Inflow   Occurrence      Volume      Volume       Error
  Node                 Type           LPS      LPS  days hr:min    10^6 ltr    10^6 ltr     Percent
  -------------------------------------------------------------------------------------------------
  WS02001211           JUNCTION      7.35   382.33     0  00:50       0.207        7.07       0.512
  WS02001212           JUNCTION      0.00   378.95     0  00:51           0        7.03       0.301
  WS02001213           JUNCTION      0.00   378.38     0  00:51           0        7.01       0.350
  WS02003069           JUNCTION      0.32   834.84     0  03:23     0.00902        14.4       0.227
  WS02003072           JUNCTION      0.00   834.56     0  03:23           0        14.4       0.275
  WS02003073           JUNCTION      1.82   836.30     0  03:24      0.0514        14.4       0.315
  WS02003060           JUNCTION     16.53   834.49     0  03:22       0.466        14.5       0.214
  WS02003066           JUNCTION      0.00   503.40     0  02:46           0        7.05       0.067
  WS02003059           JUNCTION      0.00   377.00     0  00:52           0        6.99       0.548
  WS02003067           JUNCTION      0.00   503.40     0  02:45           0        7.06       0.139
  WS02004401           JUNCTION      0.00   505.74     0  02:42           0         7.3       0.292
  WS02004402           JUNCTION      0.00   505.17     0  02:42           0        7.28       0.277
  WS02004403           JUNCTION      0.00   505.46     0  02:42           0        7.26       0.252
  WS02004404           JUNCTION      0.16   505.09     0  02:42     0.00457        7.25       0.191
  WS02004406           JUNCTION      0.00   505.26     0  02:42           0        7.21       0.465
  WS02004409           JUNCTION      0.00   504.67     0  02:43           0        7.17       0.241
  WS02004410           JUNCTION      0.00   504.18     0  02:43           0        7.16       0.272
  WS02004411           JUNCTION      0.00   503.79     0  02:44           0        7.14       0.280
  WS02004412           JUNCTION      0.00   503.66     0  02:44           0        7.12       0.302
  WS02004413           JUNCTION      0.00   503.45     0  02:45           0         7.1       0.444
  WS02004405           JUNCTION      0.04   504.89     0  02:42     0.00107        7.23       0.285
  WS02006109           JUNCTION      1.23   501.39     0  02:39      0.0347         7.4       0.238
  WS02006110           JUNCTION      0.00   501.40     0  02:39           0        7.38       0.263
  WS02006111           JUNCTION      0.00   518.77     0  02:38           0        7.35       0.048
  WS02006112           JUNCTION      8.28   509.33     0  02:41      0.0233        7.37       0.390
  WS02006113           JUNCTION      0.00   501.77     0  02:39           0        7.36       0.122
  WS02006115           JUNCTION      0.00   507.41     0  02:41           0        7.34       0.268
  WS02006116           JUNCTION      0.00   506.39     0  02:41           0        7.32       0.257
  WS02006230           JUNCTION     10.28   396.07     0  04:25        0.29        6.57       0.183
  WS02006231           JUNCTION      0.00   386.18     0  04:22           0        6.29       0.130
  WS02006232           JUNCTION      0.00   386.32     0  04:22           0         6.3       0.226
  WS02006234           JUNCTION      0.00   387.54     0  04:22           0        6.31       0.096
  WS02006235           JUNCTION      0.00   387.72     0  04:22           0        6.35       0.147
  WS02006238           JUNCTION      0.00   345.67     0  06:50           0        4.54       0.127
  WS02006240           JUNCTION      0.00   338.93     0  06:50           0        4.53       0.187
  WS02006242           JUNCTION      0.00   336.09     0  07:31           0        4.53       0.236
  WS02006243           JUNCTION      0.00   340.40     0  05:31           0        4.52      -0.141
  WS02006245           JUNCTION      0.00   343.71     0  05:31           0        4.52       0.181
  WS02006247           JUNCTION      0.00   348.99     0  06:41           0        4.53       0.098
  WS02006248           JUNCTION      0.00   354.55     0  06:41           0        4.53       0.021
  WS02006249           JUNCTION      0.00   417.66     0  02:40           0        4.89       0.183
  WS02006239           JUNCTION      0.00   344.36     0  06:50           0        4.53       0.147
  WS02006251           JUNCTION      0.08   419.92     0  02:40     0.00217        4.93       0.107
  WS02006252           JUNCTION      0.00   400.00     0  04:20           0        4.77       0.007
  WS02006253           JUNCTION      1.27    36.03     0  02:18     0.00302       0.162       1.151
  WS02006256           JUNCTION      0.00   599.61     0  00:20           0        4.24       0.055
  WS02004138           JUNCTION      0.00   380.00     0  03:20           0         6.9       0.077
  WS02004407           JUNCTION      0.00   504.82     0  02:43           0        7.18       0.104
  WS02006228           JUNCTION      0.00   500.16     0  02:39           0        7.37       0.176
  WS02006229           JUNCTION      0.00   500.03     0  02:39           0        7.39       0.153
  WS02006280           JUNCTION      0.00   186.84     0  02:19           0       0.825       0.008
  WS02006284           JUNCTION      0.10   186.85     0  02:19      0.0027       0.827       0.129
  WS02006287           JUNCTION      0.00   186.77     0  02:19           0       0.825       0.088
  WSF200               JUNCTION      0.00   503.40     0  02:46           0        7.05       0.065
  HS02004901           JUNCTION     10.26    10.26     0  02:11      0.0281      0.0282       6.639
  HS02004881           JUNCTION      4.14    35.06     0  02:18      0.0122       0.128       0.218
  HS02004876           JUNCTION      6.53    31.24     0  02:18      0.0235       0.117       0.452
  HS02004870           JUNCTION      7.27    24.85     0  02:18      0.0232      0.0932       0.114
  HS02004862           JUNCTION      5.95    18.09     0  02:19      0.0287      0.0702       0.240
  HS02004856           JUNCTION      5.38    12.19     0  02:18      0.0174      0.0429       3.468
  HS02004852           JUNCTION      0.00     7.16     0  02:18           0      0.0255       0.196
  HS02004848           JUNCTION     11.75    11.75     0  02:21      0.0551      0.0551       0.078
  HS02004842           JUNCTION      0.00     4.99     0  02:31           0      0.0426      43.916
  HS02004837           JUNCTION     17.96    22.24     0  02:17       0.219       0.249       0.327
  HS02004830           JUNCTION      0.15    22.38     0  02:18     0.00423       0.239       0.517
  HS02004824           JUNCTION     13.16    35.37     0  02:21      0.0722        0.31       0.174
  HS02004817           JUNCTION      0.60    35.97     0  02:22      0.0169       0.327       5.375
  HS02004807           JUNCTION     13.69    48.40     0  02:20      0.0426       0.353       1.213
  HS02004802           JUNCTION      0.00    48.62     0  02:21           0       0.348       1.178
  HS02004799           JUNCTION     10.51   117.86     0  02:16      0.0345       0.423       0.539
  HS02004792           JUNCTION     47.16   107.60     0  02:16       0.152       0.389       0.106
  HS02004788           JUNCTION     15.92    62.64     0  02:17       0.095       0.238       0.162
  HS02004785           JUNCTION      0.15    47.15     0  02:16     0.00423       0.145       0.332
  HS02004777           JUNCTION      0.03    47.61     0  02:14    0.000846       0.146       3.685
  HS02004770           JUNCTION     39.98    48.91     0  02:12        0.12       0.146       2.161
  HS02004480           JUNCTION      0.00   139.04     0  02:17           0       0.492       0.145
  HS02004479           JUNCTION      0.00    21.51     0  02:19           0      0.0817       0.900
  HS02004478           JUNCTION      0.00   186.76     0  02:18           0       0.825       0.076
  YS02001745           JUNCTION     64.65    64.65     0  03:01       0.719       0.719       0.108
  YS02001748           JUNCTION      0.04   160.34     0  03:37     0.00127       0.929      -0.028
  YS02001751           JUNCTION      0.01   201.34     0  03:47     0.00031       0.941       0.298
  YS02001754           JUNCTION      0.26   170.48     0  03:48     0.00733       0.952       0.960
  YS02001762           JUNCTION      0.00   117.43     0  03:33           0       0.832       1.705
  YS02001765           JUNCTION      0.00   103.74     0  03:33           0       0.824       1.801
  YS02001767           JUNCTION      0.54   116.00     0  03:33      0.0151        0.83       2.517
  YS02001770           JUNCTION     83.46   110.59     0  03:34       0.846       0.964       1.786
  YS02001774           JUNCTION      0.00    47.61     0  03:34           0       0.222       7.324
  YS02001779           JUNCTION      0.01    42.13     0  03:32    0.000141       0.089       6.698
  YS02001882           JUNCTION      0.00     3.61     0  02:08           0     0.00472      51.950
  YS02001884           JUNCTION      0.00    10.58     0  02:08           0       0.019      33.208
  YS02001759           JUNCTION     81.73   183.95     0  02:48        0.79         1.6       1.053
  YS02001887           JUNCTION    108.16   108.16     0  02:43       0.949       0.958       0.737
  YS02001890           JUNCTION      0.00   107.48     0  02:46           0       0.936       0.829
  YS02001898           JUNCTION      0.00   106.98     0  02:49           0       0.924       0.225
  YS02001901           JUNCTION      0.00   106.85     0  02:48           0       0.924       0.585
  YS02001904           JUNCTION      0.00   106.52     0  02:50           0       0.923       0.545
  YS02001907           JUNCTION      0.00   193.24     0  02:56           0        1.97       1.119
  YS02001910           JUNCTION      0.00    87.97     0  03:00           0        1.06       0.951
  YS02001915           JUNCTION     58.01    87.61     0  03:01       0.617        1.06       0.414
  YS02001918           JUNCTION      0.00    29.86     0  03:02           0       0.447       0.235
  YS02001619           JUNCTION     56.37    56.37     0  02:59       0.608       0.608       0.129
  YS02001629           JUNCTION      0.00    99.23     0  03:50           0       0.599       0.969
  YS02001641           JUNCTION      0.00   129.73     0  03:12           0        1.26       1.050
  YS02001644           JUNCTION     61.40   194.66     0  02:58        0.69        1.93       0.836
  YS02001652           JUNCTION      0.00   134.86     0  03:50           0       0.862       1.077
  YS02001655           JUNCTION      0.15   191.54     0  03:38     0.00434       0.852       0.475
  YS02001920           JUNCTION      2.87    29.87     0  03:02      0.0809       0.449       0.437
  YS02001923           JUNCTION      0.04    27.01     0  03:01     0.00106       0.369       0.076
  YS02001926           JUNCTION      0.05    27.03     0  03:01     0.00147       0.369       0.548
  YS02001929           JUNCTION     26.99    26.99     0  03:01       0.368       0.368       0.073
  YS02001658           JUNCTION      0.00   128.46     0  03:51           0       0.847       0.040
  YS02001661           JUNCTION      0.00    76.48     0  02:45           0       0.692       0.105
  YS02001664           JUNCTION     76.49    76.49     0  02:45       0.692       0.692       0.023
  YS02001622           JUNCTION      0.00    72.78     0  03:48           0       0.607       0.507
  YS02001633           JUNCTION     62.42   142.04     0  02:59       0.711        1.29       1.483
  YS02001649           JUNCTION      0.00   289.69     0  03:28           0        2.74       0.891
  YS02001757           JUNCTION      0.00   478.82     0  03:02           0        5.02       1.450
  YS02001895           JUNCTION      0.00   107.14     0  02:46           0       0.928       0.389
  YS02001625           JUNCTION      0.00    99.63     0  03:48           0       0.612       2.681
  YS02163301           JUNCTION      0.00    85.92     0  03:03           0       0.594       2.187
  YS02163601           JUNCTION      0.11   138.86     0  03:53      0.0031        1.27       1.584
  YS02164001           JUNCTION      0.00   132.89     0  03:11           0        1.26       0.972
  YS02001647           JUNCTION      0.00   194.74     0  03:07           0         1.9       0.653
  YSB1154              JUNCTION     11.61    11.61     0  02:15      0.0417      0.0431       3.462
  YSB6556              JUNCTION      0.00    11.58     0  02:18           0      0.0442       2.899
  YSB1174              JUNCTION     11.71    11.71     0  02:10      0.0305      0.0315       4.245
  YSB1171              JUNCTION      0.00    21.62     0  02:17           0      0.0812       8.436
  YS02006553           JUNCTION      0.00   193.30     0  02:57           0        1.96       0.727
  YS02006561           JUNCTION      0.00   283.73     0  02:55           0        2.77       0.023
  YS02006556           JUNCTION      0.00   193.41     0  03:02           0        1.96       0.523
  YS02006558           JUNCTION     91.38   283.74     0  02:54       0.864         2.8       0.159
  YS02001783           JUNCTION      0.00   283.73     0  02:55           0        2.77       0.052
  YS02001784           JUNCTION      1.06   284.79     0  02:55      0.0299         2.8       0.087
  YS02001786           JUNCTION      0.06   284.83     0  02:55     0.00159         2.8       0.084
  YS02001788           JUNCTION      0.07   284.90     0  02:56       0.002         2.8       0.048
  YS02001790           JUNCTION      0.15   285.05     0  02:56     0.00437         2.8       0.060
  YS02001791           JUNCTION      0.00   285.05     0  02:56           0         2.8       0.030
  YS02001793           JUNCTION      0.00   285.05     0  02:56           0         2.8       0.012
  WS02004139           JUNCTION      0.32   379.83     0  00:50     0.00905         6.9       0.571
  WSC                  OUTFALL       0.00   836.05     0  03:25           0        14.4       0.000
  3                    OUTFALL       0.00   461.19     0  02:49           0        2.41       0.000
  4                    OUTFALL       0.00   122.56     0  02:40           0       0.358       0.000
  5                    OUTFALL       0.00     0.00     0  00:00           0           0       0.000 ltr
  JK-storage           STORAGE       0.00   285.05     0  02:56           0        2.95     -30.382
  CC-storage           STORAGE       0.00   469.57     0  03:03           0        4.73      -0.768
  XR-storage           STORAGE     305.10   305.10     0  02:53        6.84        7.44      -0.000
  
  
  **********************
  Node Surcharge Summary
  **********************
  
  Surcharging occurs when water rises above the top of the highest conduit.
  ---------------------------------------------------------------------
                                               Max. Height   Min. Depth
                                   Hours       Above Crown    Below Rim
  Node                 Type      Surcharged         Meters       Meters
  ---------------------------------------------------------------------
  WS02006109           JUNCTION        1.66          0.110        1.710
  WS02006112           JUNCTION        0.22          0.016        1.664
  WS02006232           JUNCTION        2.09          0.087        1.393
  WS02006234           JUNCTION        0.11          0.013        1.227
  WS02006235           JUNCTION        0.78          0.060        1.230
  WS02006238           JUNCTION        1.46          0.078        1.352
  WS02006240           JUNCTION        0.09          0.014        1.376
  WS02006242           JUNCTION        0.93          0.063        0.757
  WS02006239           JUNCTION        0.24          0.032        1.258
  WS02006252           JUNCTION        2.62          0.185        0.915
  WS02006228           JUNCTION        1.34          0.129        2.071
  YS02001759           JUNCTION        0.51          0.029        1.181
  YS02001649           JUNCTION        0.03          0.013        1.037
  YS02001757           JUNCTION        3.65          0.133        1.077
  YS02163601           JUNCTION        0.01          0.000        1.080
  
  
  *********************
  Node Flooding Summary
  *********************
  
  No nodes were flooded.
  
  
  **********************
  Storage Volume Summary
  **********************
  
  --------------------------------------------------------------------------------------------------
                         Average     Avg  Evap Exfil       Maximum     Max    Time of Max    Maximum
                          Volume    Pcnt  Pcnt  Pcnt        Volume    Pcnt     Occurrence    Outflow
  Storage Unit           1000 m3    Full  Loss  Loss       1000 m3    Full    days hr:min        LPS
  --------------------------------------------------------------------------------------------------
  JK-storage               0.008       3     0     0         0.151      52       0  00:10     599.61
  CC-storage               0.504       3     0     0         0.932       6       0  05:23     400.00
  XR-storage               0.388      42     0     0         0.600      65       0  00:00     380.00
  
  
  ***********************
  Outfall Loading Summary
  ***********************
  
  -----------------------------------------------------------
                         Flow       Avg       Max       Total
                         Freq      Flow      Flow      Volume
  Outfall Node           Pcnt       LPS       LPS    10^6 ltr
  -----------------------------------------------------------
  WSC                  100.00    584.52    836.05      14.372
  3                     81.20    154.61    461.19       2.407
  4                     40.68     40.56    122.56       0.358
  5                      0.00      0.00      0.00       0.000
  -----------------------------------------------------------
  System                55.47    779.69   1175.36      17.136
  
  
  ********************
  Link Flow Summary
  ********************
  
  -----------------------------------------------------------------------------
                                 Maximum  Time of Max   Maximum    Max/    Max/
                                  |Flow|   Occurrence   |Veloc|    Full    Full
  Link                 Type          LPS  days hr:min     m/sec    Flow   Depth
  -----------------------------------------------------------------------------
  WS02003066WSF200     CONDUIT    503.40     0  02:46      2.71    0.09    0.22
  WS02006287WS02006284 CONDUIT    186.75     0  02:19      1.57    0.09    0.21
  WS02006284WS02006280 CONDUIT    186.84     0  02:19      1.81    0.08    0.19
  WS02006280WS02006229 CONDUIT    186.85     0  02:19      2.91    0.04    0.14
  WS02006229WS02006228 CONDUIT    500.16     0  02:39      1.00    1.66    1.00
  WS02006256WS02006235 CONDUIT    158.11     0  00:13      2.30    1.67    1.00
  WS02006253WS02006251 CONDUIT     51.87     0  07:41      0.47    0.16    0.92
  WS02006252WS02006251 CONDUIT    400.22     0  06:40      3.18    1.47    1.00
  WS02006251WS02006249 CONDUIT    417.66     0  02:40      1.17    1.20    0.89
  WS02006249WS02006248 CONDUIT    354.55     0  06:41      1.16    1.94    0.85
  WS02006248WS02006247 CONDUIT    348.99     0  06:41      1.13    0.76    0.89
  WS02006247WS02006245 CONDUIT    343.71     0  05:31      1.10    2.73    0.93
  WS02006245WS02006243 CONDUIT    340.40     0  05:31      1.16    1.01    0.95
  WS02006243WS02006242 CONDUIT    336.09     0  07:31      1.00    0.72    0.99
  WS02006242WS02006240 CONDUIT    338.93     0  06:50      0.95    1.35    1.00
  WS02006240WS02006239 CONDUIT    344.36     0  06:50      0.98    1.08    1.00
  WS02006239WS02006238 CONDUIT    345.67     0  06:50      0.91    1.11    1.00
  WS02006238WS02006235 CONDUIT    345.61     0  06:50      0.91    0.77    1.00
  WS02006235WS02006234 CONDUIT    387.54     0  04:22      1.04    4.09    1.00
  WS02006234WS02006232 CONDUIT    386.32     0  04:22      1.02    0.78    1.00
  WS02006232WS02006231 CONDUIT    386.18     0  04:22      1.05    0.81    0.96
  WS02006231WS02006230 CONDUIT    385.79     0  04:25      1.35    5.85    0.89
  WS02006230WS02006229 CONDUIT    396.05     0  04:25      1.03    8.81    1.00
  WS02006228WS02006109 CONDUIT    500.16     0  02:39      1.00    2.19    1.00
  WS02006116WS02004401 CONDUIT    505.74     0  02:42      0.74    0.70    0.81
  WS02006115WS02006116 CONDUIT    506.39     0  02:41      0.86    0.65    0.73
  WS02006113WS02006111 CONDUIT    518.77     0  02:38      2.40    0.62    0.45
  WS02006112WS02006115 CONDUIT    507.41     0  02:41      0.73    0.30    0.86
  WS02006111WS02006112 CONDUIT    505.63     0  02:41      1.42    0.24    0.67
  WS02006110WS02006113 CONDUIT    501.77     0  02:39      1.20    0.46    0.77
  WS02006109WS02006110 CONDUIT    501.40     0  02:39      1.00    0.96    0.99
  WS02004411WS02004412 CONDUIT    503.66     0  02:44      0.89    0.72    0.67
  WS02004401WS02004402 CONDUIT    505.17     0  02:42      0.77    0.61    0.84
  WS02004413WS02003067 CONDUIT    503.40     0  02:45      1.07    0.22    0.58
  WS02004412WS02004413 CONDUIT    503.45     0  02:45      0.79    0.34    0.76
  WS02004410WS02004411 CONDUIT    503.79     0  02:44      0.91    0.69    0.66
  WS02004409WS02004410 CONDUIT    504.18     0  02:43      0.94    0.65    0.65
  WS02004407WS02004409 CONDUIT    504.67     0  02:43      1.45    0.18    0.46
  WS02004406WS02004407 CONDUIT    504.82     0  02:43      1.00    0.23    0.61
  WS02004405WS02004406 CONDUIT    505.26     0  02:42      0.66    1.00    0.94
  WS02004404WS02004405 CONDUIT    504.85     0  02:42      0.84    4.95    0.94
  WS02004403WS02004404 CONDUIT    504.93     0  02:42      0.74    0.36    0.91
  WS02004402WS02004403 CONDUIT    505.46     0  02:42      0.75    0.73    0.86
  WS02004139WS02001211 CONDUIT    374.99     0  00:50      0.81    0.47    0.58
  WS02004138WS02004139 CONDUIT    379.51     0  00:50      3.34    0.08    0.43
  WS02003067WS02003066 CONDUIT    503.40     0  02:46      1.16    0.16    0.41
  WS02001213WS02003059 CONDUIT    377.00     0  00:52      0.78    0.62    0.75
  WS02001212WS02001213 CONDUIT    378.38     0  00:51      1.31    0.58    0.45
  WS02001211WS02001212 CONDUIT    378.95     0  00:51      0.77    0.29    0.63
  WS02003072WS02003073 CONDUIT    834.48     0  03:24      1.66    1.80    0.46
  WS02003069WS02003072 CONDUIT    834.56     0  03:23      1.56    0.40    0.48
  WS02003060WS02003069 CONDUIT    834.52     0  03:23      1.81    0.33    0.43
  WS02003059WS02003060 CONDUIT    377.24     0  04:12      0.93    0.25    0.63
  HS02004901HS02004770 CONDUIT      9.31     0  02:15      0.04    0.04    0.31
  HS02004876HS02004881 CONDUIT     31.29     0  02:19      0.52    0.33    0.09
  HS02004870HS02004876 CONDUIT     24.83     0  02:19      0.37    0.02    0.10
  HS02004842HS02004848 CONDUIT      4.99     0  02:31      0.03    0.00    0.27
  HS02004837HS02004842 CONDUIT      5.16     0  02:31      0.42    0.00    0.29
  HS02004830HS02004837 CONDUIT     22.23     0  02:18      0.43    0.02    0.07
  HS02004824HS02004830 CONDUIT     22.37     0  02:19      0.47    0.03    0.07
  HS02004817HS02004824 CONDUIT     35.37     0  02:22      0.17    0.02    0.39
  HS02004770HS02004777 CONDUIT     47.58     0  02:14      0.21    0.09    0.32
  HS02004799HS02004480 CONDUIT    117.65     0  02:17      0.56    0.15    0.30
  HS02004792HS02004799 CONDUIT    107.54     0  02:16      0.65    0.07    0.24
  HS02004788HS02004792 CONDUIT     62.59     0  02:18      0.80    0.04    0.11
  HS02004785HS02004788 CONDUIT     47.07     0  02:18      0.49    0.35    0.14
  HS02004777HS02004785 CONDUIT     47.00     0  02:16      0.26    0.06    0.26
  HS02004480HS02004478 CONDUIT    138.95     0  02:18      0.92    0.59    0.22
  HS02004479HS02004480 CONDUIT     21.74     0  02:20      0.15    0.02    0.29
  HS02004862HS02004870 CONDUIT     18.05     0  02:20      0.45    0.02    0.06
  HS02004848HS02004852 CONDUIT      7.16     0  02:18      0.30    0.01    0.03
  HS02004856HS02004862 CONDUIT     12.17     0  02:19      0.33    0.01    0.05
  HS02004852HS02004856 CONDUIT      7.13     0  02:20      0.11    0.01    0.09
  HS02004802HS02004478 CONDUIT     48.91     0  02:22      0.29    0.04    0.24
  HS02004478WS02006287 CONDUIT    186.77     0  02:19      1.26    0.05    0.16
  HS02004817HS02004807 CONDUIT     36.40     0  02:23      0.10    0.02    0.50
  HS02004807HS02004802 CONDUIT     48.62     0  02:21      0.24    0.09    0.29
  YS02001759YS02001757 CONDUIT    181.61     0  03:32      0.23    0.13    1.00
  YS02001762YS02001759 CONDUIT    120.26     0  03:34      0.18    0.14    1.00
  YS02001765YS02001762 CONDUIT    117.43     0  03:33      0.23    0.11    0.97
  YS02001770YS02001767 CONDUIT    115.46     0  03:33      0.32    0.46    0.90
  YS02001774YS02001770 CONDUIT     49.05     0  03:34      0.14    0.03    0.92
  YS02001779YS02001774 CONDUIT     43.67     0  03:34      0.08    0.02    0.84
  YS02001649YS02001757 CONDUIT    308.96     0  03:31      0.39    0.19    1.00
  YS02001767YS02001765 CONDUIT    103.74     0  03:33      0.26    0.13    0.92
  YS02006561YS02001783 CONDUIT    283.73     0  02:55      1.74    0.15    0.36
  YS02001783YS02001784 CONDUIT    283.73     0  02:55      1.19    0.39    0.48
  YS02001784YS02001785 CONDUIT    284.78     0  02:55      1.26    0.66    0.46
  YS02001788YS02001790 CONDUIT    284.90     0  02:56      1.83    0.21    0.35
  YS02001790YS02001791 CONDUIT    285.05     0  02:56      2.11    0.31    0.31
  YS02001791YS02001793 CONDUIT    285.05     0  02:56      4.04    0.12    0.21
  YS02001910YS02001907 CONDUIT     88.11     0  03:01      0.49    0.05    0.71
  YS02001786YS02001788 CONDUIT    284.83     0  02:56      1.70    0.55    0.37
  YS02001915YS02001910 CONDUIT     87.97     0  03:00      0.44    0.04    0.50
  YS02001918YS02001915 CONDUIT     29.84     0  03:03      0.44    0.02    0.24
  YS02001923YS02001920 CONDUIT     27.00     0  03:02      0.42    0.01    0.14
  YS02001926YS02001923 CONDUIT     26.97     0  03:01      0.47    0.04    0.13
  YS02001929YS02001926 CONDUIT     26.97     0  03:01      0.49    0.01    0.12
  YS02001920YS02001918 CONDUIT     29.86     0  03:02      0.44    0.03    0.14
  YS02001629YS02163301 CONDUIT     85.92     0  03:03      0.12    0.11    0.87
  YS02001619YS02001622 CONDUIT     72.78     0  03:48      0.64    0.11    0.48
  YS02001622YS02001625 CONDUIT     81.66     0  03:48      0.24    0.04    0.64
  YS02001625YS02001629 CONDUIT     99.23     0  03:50      0.24    0.05    0.63
  YS02163301YS02001633 CONDUIT     80.58     0  03:08      0.11    0.08    0.91
  YS02163601YS02164001 CONDUIT    132.89     0  03:11      0.17    0.12    0.97
  YS02164001YS02001641 CONDUIT    129.73     0  03:12      0.17    0.18    0.95
  YS02001641YS02001644 CONDUIT    134.92     0  03:10      0.18    0.44    0.96
  YS02001647YS02001649 CONDUIT    204.97     0  03:12      0.28    0.11    0.89
  YS02006553YS02006556 CONDUIT    193.41     0  03:02      0.29    0.17    0.80
  YS02006556YS02006558 CONDUIT    193.60     0  03:02      0.28    0.15    0.82
  YSB6556YSB1171       CONDUIT     11.75     0  02:19      0.05    0.01    0.56
  YS02001907YS02006553 CONDUIT    193.30     0  02:57      0.24    0.23    0.90
  YS02006558YS02006561 CONDUIT    283.73     0  02:55      2.24    0.63    0.46
  YS02001633YS02163601 CONDUIT    138.75     0  03:53      0.18    0.15    0.96
  YS02001644YS02001647 CONDUIT    194.74     0  03:07      0.27    0.11    0.87
  YS02001745YS02001748 CONDUIT     64.65     0  03:01      1.37    0.02    0.18
  YS02001748YS02001751 CONDUIT    201.33     0  03:47      1.06    0.10    0.41
  YS02001751YS02001754 CONDUIT     82.12     0  03:04      0.95    0.04    0.66
  YS02001754YS02001757 CONDUIT    188.86     0  03:47      0.33    0.08    0.91
  YS02001882YS02001884 CONDUIT      3.61     0  02:08      0.06    0.00    0.44
  YS02001884YS02001887 CONDUIT     10.58     0  02:08      0.06    0.01    0.53
  YS02001890YS02001895 CONDUIT    107.14     0  02:46      0.27    0.05    0.50
  YS02001895YS02001898 CONDUIT    106.98     0  02:49      0.47    0.19    0.37
  YS02001898YS02001901 CONDUIT    106.85     0  02:48      0.32    0.07    0.45
  YS02001901YS02001904 CONDUIT    106.52     0  02:50      0.27    0.17    0.50
  YS02001904YS02001907 CONDUIT    106.56     0  02:50      0.20    0.04    0.66
  YS02001887YS02001890 CONDUIT    107.48     0  02:46      0.23    0.18    0.59
  YS02001652YS02001649 CONDUIT    183.34     0  03:45      0.32    0.09    0.91
  YS02001655YS02001652 CONDUIT    112.23     0  03:28      1.03    0.05    0.68
  YS02001658YS02001655 CONDUIT    191.38     0  03:38      1.22    0.08    0.39
  YS02001661YS02001658 CONDUIT     76.48     0  02:45      1.41    0.03    0.18
  YS02001664YS02001661 CONDUIT     76.48     0  02:45      1.06    0.02    0.15
  YSB1154YSB6556       CONDUIT     11.58     0  02:18      0.19    0.02    0.45
  YSB1174YSB1171       CONDUIT     10.86     0  02:11      0.05    0.02    0.57
  YSB1171HS02004479    CONDUIT     21.51     0  02:19      0.54    0.01    0.44
  HS02004881HS02006253 CONDUIT     35.06     0  02:18      1.60    0.01    0.25
  YS02001793JiankangQianchi CONDUIT    285.05     0  02:56     12.82    0.02    0.55
  YS02001757CaochengTiaoxuchi CONDUIT    469.57     0  03:03      1.06    0.21    0.67
  WSF200WS02003060     CONDUIT    503.32     0  02:46      1.83    0.11    0.31
  1                    CONDUIT    836.05     0  03:25      3.17    0.29    0.37
  2                    CONDUIT    122.56     0  02:40      5.13    0.29    0.37
  3                    CONDUIT    461.19     0  02:49      9.64    0.73    0.64
  4                    CONDUIT      0.00     0  00:00      0.00    0.00    0.00
  CC-Pump-1            PUMP       200.00     0  02:25              1.00
  CC-Pump-2            PUMP       200.00     0  03:10              1.00
  JK-Pump-1            PUMP       300.00     0  04:50              1.00
  JK-Pump-2            PUMP       300.00     0  03:40              1.00
  XR-Pump-1            PUMP        95.00     0  00:00              1.00
  XR-Pump-2            PUMP        95.00     0  00:00              1.00
  XR-Pump-3            PUMP        95.00     0  00:20              1.00
  XR-Pump-4            PUMP        95.00     0  00:00              1.00
  
  
  ***************************
  Flow Classification Summary
  ***************************
  
  -------------------------------------------------------------------------------------
                      Adjusted    ---------- Fraction of Time in Flow Class ---------- 
                       /Actual         Up    Down  Sub   Sup   Up    Down  Norm  Inlet 
  Conduit               Length    Dry  Dry   Dry   Crit  Crit  Crit  Crit  Ltd   Ctrl  
  -------------------------------------------------------------------------------------
  WS02003066WSF200        1.00   0.05  0.01  0.00  0.00  0.94  0.00  0.00  0.70  0.00
  WS02006287WS02006284    1.00   0.04  0.01  0.00  0.69  0.26  0.00  0.00  0.78  0.00
  WS02006284WS02006280    1.00   0.04  0.00  0.00  0.00  0.00  0.00  0.96  0.00  0.00
  WS02006280WS02006229    1.00   0.04  0.00  0.00  0.00  0.00  0.00  0.96  0.00  0.00
  WS02006229WS02006228    1.00   0.00  0.00  0.00  1.00  0.00  0.00  0.00  0.00  0.00
  WS02006256WS02006235    1.00   0.00  0.00  0.00  0.99  0.00  0.00  0.00  0.00  0.00
  WS02006253WS02006251    1.00   0.03  0.01  0.00  0.96  0.00  0.00  0.00  0.00  0.00
  WS02006252WS02006251    1.00   0.08  0.00  0.00  0.00  0.00  0.92  0.00  0.00  0.00
  WS02006251WS02006249    1.00   0.00  0.00  0.00  1.00  0.00  0.00  0.00  0.32  0.00
  WS02006249WS02006248    1.00   0.00  0.00  0.00  0.88  0.00  0.12  0.00  0.00  0.00
  WS02006248WS02006247    1.00   0.00  0.00  0.00  0.97  0.00  0.00  0.02  0.20  0.00
  WS02006247WS02006245    1.00   0.00  0.00  0.00  0.97  0.00  0.00  0.02  0.00  0.00
  WS02006245WS02006243    1.00   0.01  0.00  0.00  0.95  0.00  0.00  0.04  0.01  0.00
  WS02006243WS02006242    1.00   0.01  0.00  0.00  0.99  0.00  0.00  0.00  0.25  0.00
  WS02006242WS02006240    1.00   0.01  0.00  0.00  0.99  0.00  0.00  0.00  0.00  0.00
  WS02006240WS02006239    1.00   0.00  0.00  0.00  0.96  0.00  0.00  0.04  0.01  0.00
  WS02006239WS02006238    1.00   0.00  0.00  0.00  1.00  0.00  0.00  0.00  0.01  0.00
  WS02006238WS02006235    1.00   0.00  0.00  0.00  1.00  0.00  0.00  0.00  0.00  0.00
  WS02006235WS02006234    1.00   0.00  0.00  0.00  0.95  0.00  0.04  0.00  0.00  0.00
  WS02006234WS02006232    1.00   0.00  0.00  0.00  1.00  0.00  0.00  0.00  0.10  0.00
  WS02006232WS02006231    1.00   0.00  0.00  0.00  0.99  0.00  0.00  0.00  0.00  0.00
  WS02006231WS02006230    1.00   0.01  0.00  0.00  0.71  0.00  0.28  0.00  0.00  0.00
  WS02006230WS02006229    1.00   0.00  0.00  0.00  0.99  0.00  0.00  0.01  0.00  0.00
  WS02006228WS02006109    1.00   0.00  0.00  0.00  1.00  0.00  0.00  0.00  0.00  0.00
  WS02006116WS02004401    1.00   0.03  0.00  0.00  0.97  0.00  0.00  0.00  0.00  0.00
  WS02006115WS02006116    1.00   0.03  0.00  0.00  0.97  0.00  0.00  0.01  0.00  0.00
  WS02006113WS02006111    1.00   0.02  0.00  0.00  0.00  0.98  0.00  0.00  0.11  0.00
  WS02006112WS02006115    1.00   0.02  0.00  0.00  0.97  0.00  0.00  0.00  0.00  0.00
  WS02006111WS02006112    1.00   0.02  0.00  0.00  0.97  0.00  0.00  0.00  0.96  0.00
  WS02006110WS02006113    1.00   0.00  0.02  0.00  0.98  0.00  0.00  0.00  0.00  0.00
  WS02006109WS02006110    1.00   0.00  0.00  0.00  1.00  0.00  0.00  0.00  0.00  0.00
  WS02004411WS02004412    1.00   0.04  0.00  0.00  0.96  0.00  0.00  0.00  0.00  0.00
  WS02004401WS02004402    1.00   0.03  0.00  0.00  0.97  0.00  0.00  0.00  0.00  0.00
  WS02004413WS02003067    1.00   0.04  0.01  0.00  0.00  0.00  0.94  0.00  0.00  0.00
  WS02004412WS02004413    1.00   0.04  0.00  0.00  0.96  0.00  0.00  0.00  0.03  0.00
  WS02004410WS02004411    1.00   0.04  0.00  0.00  0.96  0.00  0.00  0.00  0.04  0.00
  WS02004409WS02004410    1.00   0.04  0.00  0.00  0.96  0.00  0.00  0.00  0.04  0.00
  WS02004407WS02004409    1.00   0.04  0.00  0.00  0.96  0.00  0.00  0.00  0.87  0.00
  WS02004406WS02004407    1.00   0.00  0.04  0.00  0.96  0.00  0.00  0.00  0.00  0.00
  WS02004405WS02004406    1.00   0.00  0.00  0.00  1.00  0.00  0.00  0.00  0.03  0.00
  WS02004404WS02004405    1.00   0.00  0.00  0.00  1.00  0.00  0.00  0.00  0.00  0.00
  WS02004403WS02004404    1.00   0.00  0.03  0.00  0.97  0.00  0.00  0.00  0.01  0.00
  WS02004402WS02004403    1.00   0.03  0.00  0.00  0.97  0.00  0.00  0.00  0.00  0.00
  WS02004139WS02001211    1.00   0.00  0.00  0.00  1.00  0.00  0.00  0.00  0.00  0.00
  WS02004138WS02004139    1.00   0.00  0.00  0.00  1.00  0.00  0.00  0.00  1.00  0.00
  WS02003067WS02003066    1.00   0.06  0.00  0.00  0.94  0.00  0.00  0.00  0.00  0.00
  WS02001213WS02003059    1.00   0.00  0.00  0.00  1.00  0.00  0.00  0.00  0.00  0.00
  WS02001212WS02001213    1.00   0.00  0.00  0.00  0.85  0.00  0.15  0.00  0.00  0.00
  WS02001211WS02001212    1.00   0.00  0.00  0.00  1.00  0.00  0.00  0.00  0.00  0.00
  WS02003072WS02003073    1.00   0.00  0.00  0.00  0.00  0.00  0.00  1.00  0.00  0.00
  WS02003069WS02003072    1.00   0.00  0.00  0.00  1.00  0.00  0.00  0.00  0.26  0.00
  WS02003060WS02003069    1.00   0.00  0.00  0.00  0.99  0.01  0.00  0.00  0.09  0.00
  WS02003059WS02003060    1.00   0.00  0.00  0.00  1.00  0.00  0.00  0.00  0.01  0.00
  HS02004901HS02004770    1.00   0.04  0.00  0.00  0.96  0.00  0.00  0.00  0.03  0.00
  HS02004876HS02004881    1.00   0.00  0.00  0.00  1.00  0.00  0.00  0.00  0.00  0.00
  HS02004870HS02004876    1.00   0.00  0.00  0.00  0.99  0.01  0.00  0.00  0.95  0.00
  HS02004842HS02004848    1.00   0.00  0.04  0.00  0.96  0.00  0.00  0.00  0.69  0.00
  HS02004837HS02004842    1.00   0.00  0.00  0.00  1.00  0.00  0.00  0.00  0.11  0.00
  HS02004830HS02004837    1.00   0.00  0.00  0.00  1.00  0.00  0.00  0.00  0.99  0.00
  HS02004824HS02004830    1.00   0.00  0.00  0.00  1.00  0.00  0.00  0.00  0.00  0.00
  HS02004817HS02004824    1.00   0.00  0.00  0.00  1.00  0.00  0.00  0.00  1.00  0.00
  HS02004770HS02004777    1.00   0.00  0.04  0.00  0.96  0.00  0.00  0.00  0.07  0.00
  HS02004799HS02004480    1.00   0.00  0.02  0.00  0.95  0.00  0.04  0.00  0.00  0.00
  HS02004792HS02004799    1.00   0.00  0.00  0.00  1.00  0.00  0.00  0.00  0.98  0.00
  HS02004788HS02004792    1.00   0.00  0.00  0.00  1.00  0.00  0.00  0.00  0.98  0.00
  HS02004785HS02004788    1.00   0.00  0.00  0.00  1.00  0.00  0.00  0.00  0.00  0.00
  HS02004777HS02004785    1.00   0.00  0.00  0.00  1.00  0.00  0.00  0.00  0.21  0.00
  HS02004480HS02004478    1.00   0.04  0.00  0.00  0.73  0.00  0.00  0.23  0.00  0.00
  HS02004479HS02004480    1.00   0.02  0.00  0.00  0.98  0.00  0.00  0.00  0.16  0.00
  HS02004862HS02004870    1.00   0.00  0.00  0.00  1.00  0.00  0.00  0.00  0.06  0.00
  HS02004848HS02004852    1.00   0.04  0.00  0.00  0.96  0.00  0.00  0.00  0.71  0.00
  HS02004856HS02004862    1.00   0.00  0.06  0.00  0.94  0.00  0.00  0.00  0.74  0.00
  HS02004852HS02004856    1.00   0.04  0.01  0.00  0.95  0.00  0.00  0.00  0.83  0.00
  HS02004802HS02004478    1.00   0.04  0.01  0.00  0.95  0.00  0.00  0.00  0.01  0.00
  HS02004478WS02006287    1.00   0.05  0.00  0.00  0.89  0.06  0.00  0.00  0.79  0.00
  HS02004817HS02004807    1.00   0.00  0.04  0.00  0.96  0.00  0.00  0.00  0.00  0.00
  HS02004807HS02004802    1.00   0.04  0.00  0.00  0.96  0.00  0.00  0.00  0.01  0.00
  YS02001759YS02001757    1.00   0.00  0.00  0.00  1.00  0.00  0.00  0.00  0.17  0.00
  YS02001762YS02001759    1.00   0.00  0.00  0.00  1.00  0.00  0.00  0.00  0.05  0.00
  YS02001765YS02001762    1.00   0.00  0.00  0.00  1.00  0.00  0.00  0.00  0.22  0.00
  YS02001770YS02001767    1.00   0.00  0.00  0.00  1.00  0.00  0.00  0.00  0.00  0.00
  YS02001774YS02001770    1.00   0.00  0.05  0.00  0.95  0.00  0.00  0.00  0.07  0.00
  YS02001779YS02001774    1.00   0.00  0.00  0.00  1.00  0.00  0.00  0.00  0.27  0.00
  YS02001649YS02001757    1.00   0.00  0.00  0.00  1.00  0.00  0.00  0.00  0.19  0.00
  YS02001767YS02001765    1.00   0.00  0.00  0.00  1.00  0.00  0.00  0.00  0.01  0.00
  YS02006561YS02001783    1.00   0.07  0.00  0.00  0.00  0.93  0.00  0.00  0.73  0.00
  YS02001783YS02001784    1.00   0.00  0.07  0.00  0.93  0.00  0.00  0.00  0.00  0.00
  YS02001784YS02001785    1.00   0.00  0.00  0.00  1.00  0.00  0.00  0.00  0.25  0.00
  YS02001788YS02001790    1.00   0.00  0.00  0.00  0.07  0.93  0.00  0.00  0.80  0.00
  YS02001790YS02001791    1.00   0.00  0.00  0.00  0.00  1.00  0.00  0.00  0.51  0.00
  YS02001791YS02001793    1.00   0.00  0.00  0.00  0.00  1.00  0.00  0.00  0.00  0.00
  YS02001910YS02001907    1.00   0.00  0.00  0.00  0.99  0.00  0.00  0.00  0.13  0.00
  YS02001786YS02001788    1.00   0.00  0.00  0.00  0.07  0.93  0.00  0.00  0.00  0.00
  YS02001915YS02001910    1.00   0.00  0.00  0.00  1.00  0.00  0.00  0.00  0.24  0.00
  YS02001918YS02001915    1.00   0.00  0.00  0.00  1.00  0.00  0.00  0.00  0.81  0.00
  YS02001923YS02001920    1.00   0.00  0.00  0.00  1.00  0.00  0.00  0.00  1.00  0.00
  YS02001926YS02001923    1.00   0.00  0.03  0.00  0.00  0.00  0.97  0.00  0.00  0.00
  YS02001929YS02001926    1.00   0.00  0.04  0.00  0.96  0.00  0.00  0.00  0.87  0.00
  YS02001920YS02001918    1.00   0.00  0.00  0.00  1.00  0.00  0.00  0.00  0.00  0.00
  YS02001629YS02163301    1.00   0.06  0.00  0.00  0.94  0.00  0.00  0.00  0.00  0.00
  YS02001619YS02001622    1.00   0.04  0.00  0.00  0.96  0.00  0.00  0.00  0.00  0.00
  YS02001622YS02001625    1.00   0.04  0.00  0.00  0.96  0.00  0.00  0.00  0.13  0.00
  YS02001625YS02001629    1.00   0.04  0.03  0.00  0.92  0.00  0.01  0.00  0.00  0.00
  YS02163301YS02001633    1.00   0.00  0.06  0.00  0.94  0.00  0.00  0.00  0.00  0.00
  YS02163601YS02164001    1.00   0.00  0.03  0.00  0.97  0.00  0.00  0.00  0.00  0.00
  YS02164001YS02001641    1.00   0.00  0.03  0.00  0.97  0.00  0.00  0.00  0.07  0.00
  YS02001641YS02001644    1.00   0.00  0.00  0.00  1.00  0.00  0.00  0.00  0.00  0.00
  YS02001647YS02001649    1.00   0.00  0.06  0.00  0.93  0.00  0.00  0.00  0.01  0.00
  YS02006553YS02006556    1.00   0.00  0.00  0.00  1.00  0.00  0.00  0.00  0.03  0.00
  YS02006556YS02006558    1.00   0.00  0.00  0.00  1.00  0.00  0.00  0.00  0.00  0.00
  YSB6556YSB1171          1.00   0.02  0.02  0.00  0.96  0.00  0.00  0.00  0.00  0.00
  YS02001907YS02006553    1.00   0.00  0.00  0.00  1.00  0.00  0.00  0.00  0.00  0.00
  YS02006558YS02006561    1.00   0.07  0.00  0.00  0.00  0.93  0.00  0.00  0.72  0.00
  YS02001633YS02163601    1.00   0.00  0.00  0.00  1.00  0.00  0.00  0.00  0.20  0.00
  YS02001644YS02001647    1.00   0.00  0.07  0.00  0.93  0.00  0.00  0.00  0.00  0.00
  YS02001745YS02001748    1.00   0.00  0.00  0.00  0.51  0.17  0.00  0.32  0.52  0.00
  YS02001748YS02001751    1.00   0.00  0.00  0.00  0.98  0.02  0.00  0.00  0.34  0.00
  YS02001751YS02001754    1.00   0.00  0.00  0.00  0.93  0.00  0.00  0.07  0.02  0.00
  YS02001754YS02001757    1.00   0.00  0.00  0.00  1.00  0.00  0.00  0.00  0.26  0.00
  YS02001882YS02001884    1.00   0.05  0.00  0.00  0.94  0.00  0.00  0.00  0.00  0.00
  YS02001884YS02001887    1.00   0.03  0.01  0.00  0.96  0.00  0.00  0.00  0.00  0.00
  YS02001890YS02001895    1.00   0.00  0.06  0.00  0.94  0.00  0.00  0.00  0.00  0.00
  YS02001895YS02001898    1.00   0.06  0.00  0.00  0.93  0.00  0.01  0.00  0.00  0.00
  YS02001898YS02001901    1.00   0.06  0.00  0.00  0.94  0.00  0.00  0.00  0.02  0.00
  YS02001901YS02001904    1.00   0.06  0.00  0.00  0.94  0.00  0.00  0.00  0.00  0.00
  YS02001904YS02001907    1.00   0.00  0.06  0.00  0.94  0.00  0.00  0.00  0.00  0.00
  YS02001887YS02001890    1.00   0.00  0.00  0.00  0.99  0.00  0.01  0.00  0.00  0.00
  YS02001652YS02001649    1.00   0.00  0.00  0.00  1.00  0.00  0.00  0.00  0.26  0.00
  YS02001655YS02001652    1.00   0.00  0.00  0.00  0.93  0.00  0.00  0.07  0.02  0.00
  YS02001658YS02001655    1.00   0.00  0.05  0.00  0.92  0.02  0.00  0.00  0.28  0.00
  YS02001661YS02001658    1.00   0.05  0.00  0.00  0.66  0.29  0.00  0.00  0.73  0.00
  YS02001664YS02001661    1.00   0.04  0.00  0.00  0.78  0.18  0.00  0.00  0.86  0.00
  YSB1154YSB6556          1.00   0.04  0.00  0.00  0.96  0.00  0.00  0.00  0.02  0.00
  YSB1174YSB1171          1.00   0.03  0.01  0.00  0.97  0.00  0.00  0.00  0.00  0.00
  YSB1171HS02004479       1.00   0.02  0.00  0.00  0.97  0.00  0.00  0.01  0.13  0.00
  HS02004881HS02006253    1.00   0.03  0.00  0.00  0.80  0.01  0.00  0.16  0.59  0.00
  YS02001793JiankangQianchi    1.00   0.00  0.00  0.00  0.14  0.86  0.00  0.00  0.18  0.00
  YS02001757CaochengTiaoxuchi    1.00   0.00  0.08  0.00  0.92  0.00  0.00  0.00  0.00  0.00
  WSF200WS02003060        1.00   0.00  0.05  0.00  0.73  0.22  0.00  0.00  0.29  0.00
  1                       1.00   0.00  0.00  0.00  0.00  1.00  0.00  0.00  0.34  0.00
  2                       1.00   0.59  0.00  0.00  0.00  0.41  0.00  0.00  0.12  0.00
  3                       1.00   0.19  0.00  0.00  0.00  0.81  0.00  0.00  0.10  0.00
  4                       1.00   1.00  0.00  0.00  0.00  0.00  0.00  0.00  0.00  0.00
  
  
  *************************
  Conduit Surcharge Summary
  *************************
  
  ----------------------------------------------------------------------------
                                                           Hours        Hours 
                         --------- Hours Full --------   Above Full   Capacity
  Conduit                Both Ends  Upstream  Dnstream   Normal Flow   Limited
  ----------------------------------------------------------------------------
  WS02006229WS02006228        1.34      1.83      1.34      4.56         1.34
  WS02006256WS02006235        5.64      5.64      6.84      2.18         0.01
  WS02006252WS02006251        1.23      1.23      2.62      2.26         0.01
  WS02006251WS02006249        0.01      0.01      0.01      1.22         0.01
  WS02006249WS02006248        0.01      0.01      0.01      4.41         0.01
  WS02006247WS02006245        0.01      0.01      0.01      4.69         0.01
  WS02006245WS02006243        0.01      0.01      0.01      0.03         0.01
  WS02006243WS02006242        0.01      0.01      0.93      0.01         0.01
  WS02006242WS02006240        0.09      0.09      1.50      2.64         0.01
  WS02006240WS02006239        0.17      0.17      0.24      0.08         0.01
  WS02006239WS02006238        1.27      1.27      1.46      0.26         0.19
  WS02006238WS02006235        1.17      1.17      1.97      0.01         0.01
  WS02006235WS02006234        0.11      0.11      0.78      5.66         0.01
  WS02006234WS02006232        0.29      0.29      2.09      0.01         0.01
  WS02006232WS02006231        0.01      0.01      2.09      0.01         0.01
  WS02006231WS02006230        0.01      0.01      0.01      5.66         0.01
  WS02006230WS02006229        3.13      4.28      3.13      5.77         3.13
  WS02006228WS02006109        1.66      2.58      1.66      5.03         1.66
  WS02006112WS02006115        0.01      0.01      0.22      0.01         0.01
  WS02006111WS02006112        0.01      0.01      4.66      0.01         0.01
  WS02006110WS02006113        0.01      0.01      2.22      0.01         0.01
  WS02006109WS02006110        0.01      0.01      2.58      0.01         0.01
  WS02004404WS02004405        0.01      0.01      0.01      5.59         0.01
  WS02003072WS02003073        0.01      0.01      0.01      4.83         0.01
  YS02001759YS02001757        0.51      0.51      3.65      0.01         0.01
  YS02001762YS02001759        0.01      0.01      0.51      0.01         0.01
  YS02001649YS02001757        0.03      0.03      3.65      0.01         0.01
  YS02163601YS02164001        0.01      0.01      0.01      0.01         0.01
  YS02001647YS02001649        0.01      0.01      0.03      0.01         0.01
  YS02001633YS02163601        0.01      0.01      0.01      0.01         0.01
  YS02001754YS02001757        0.01      0.01      3.65      0.01         0.01
  YS02001652YS02001649        0.01      0.01      0.03      0.01         0.01
  YS02001793JiankangQianchi        0.01      0.01      0.51      0.01         0.01
  YS02001757CaochengTiaoxuchi        0.01      0.01      3.65      0.01         0.01
  
  
  ***************
  Pumping Summary
  ***************
  
  ---------------------------------------------------------------------------------------------------------
                                                  Min       Avg       Max     Total     Power    % Time Off
                        Percent   Number of      Flow      Flow      Flow    Volume     Usage    Pump Curve
  Pump                 Utilized   Start-Ups       LPS       LPS       LPS  10^6 ltr     Kw-hr    Low   High
  ---------------------------------------------------------------------------------------------------------
  CC-Pump-1               59.73           5      0.00    152.49    200.00     2.553     10.46    0.0   87.2
  CC-Pump-2               59.73           6      0.00    131.01    200.00     2.215      9.20    0.0   88.9
  JK-Pump-1               82.98           5      0.00    133.19    300.00     2.271     44.11    0.0    0.0
  JK-Pump-2               70.22           8      0.00    127.62    300.00     1.969     37.62    0.0    0.0
  XR-Pump-1               91.47           9      0.00     72.51     95.00     1.881     32.83    0.0    0.0
  XR-Pump-2               89.36           6      0.00     72.59     95.00     1.796     31.08    0.0    0.0
  XR-Pump-3               87.23          10      0.00     65.97     95.00     1.625     28.33    0.0    0.0
  XR-Pump-4               78.72           9      0.00     67.39     95.00     1.596     27.61    0.0    0.0
  

  Analysis begun on:  Fri Dec 24 18:06:59 2021
  Analysis ended on:  Fri Dec 24 18:07:02 2021
  Total elapsed time: 00:00:03