
  EPA STORM WATER MANAGEMENT MODEL - VERSION 5.1 (Build 5.3.0.dev0)
  --------------------------------------------------------------

  WARNING 04: minimum elevation drop used for Conduit WS02004404WS02004405
  WARNING 03: negative offset ignored for Link YS02001904YS02001907
  
  *********************************************************
  NOTE: The summary statistics displayed in this report are
  based on results found at every computational time step,  
  not just on results from each reporting time step.
  *********************************************************
  
  ****************
  Analysis Options
  ****************
  Flow Units ............... LPS
  Process Models:
    Rainfall/Runoff ........ YES
    RDII ................... NO
    Snowmelt ............... NO
    Groundwater ............ NO
    Flow Routing ........... YES
    Ponding Allowed ........ NO
    Water Quality .......... NO
  Infiltration Method ...... HORTON
  Flow Routing Method ...... DYNWAVE
  Surcharge Method ......... EXTRAN
  Starting Date ............ 08/28/2015 08:00:00
  Ending Date .............. 08/28/2015 15:50:00
  Antecedent Dry Days ...... 8.0
  Report Time Step ......... 00:01:00
  Wet Time Step ............ 00:01:00
  Dry Time Step ............ 00:01:00
  Routing Time Step ........ 5.00 sec
  Variable Time Step ....... YES
  Maximum Trials ........... 8
  Number of Threads ........ 4
  Head Tolerance ........... 0.001500 m
  
  
  **************************        Volume         Depth
  Runoff Quantity Continuity     hectare-m            mm
  **************************     ---------       -------
  Total Precipitation ......         3.147         6.891
  Evaporation Loss .........         0.000         0.000
  Infiltration Loss ........         0.796         1.742
  Surface Runoff ...........         1.432         3.135
  Final Storage ............         0.920         2.015
  Continuity Error (%) .....        -0.018
  
  
  **************************        Volume        Volume
  Flow Routing Continuity        hectare-m      10^6 ltr
  **************************     ---------     ---------
  Dry Weather Inflow .......         0.616         6.165
  Wet Weather Inflow .......         1.431        14.311
  Groundwater Inflow .......         0.000         0.000
  RDII Inflow ..............         0.000         0.000
  External Inflow ..........         0.102         1.024
  External Outflow .........         1.795        17.946
  Flooding Loss ............         0.035         0.350
  Evaporation Loss .........         0.000         0.000
  Exfiltration Loss ........         0.000         0.000
  Initial Stored Volume ....         0.076         0.761
  Final Stored Volume ......         0.488         4.879
  Continuity Error (%) .....        -4.114
  
  
  *************************
  Highest Continuity Errors
  *************************
  Node HS02004842 (25.41%)
  Node YS02001774 (22.77%)
  Node YS02001884 (19.92%)
  Node JK-storage (-19.89%)
  Node YSB1171 (5.83%)
  
  
  ***************************
  Time-Step Critical Elements
  ***************************
  Link WS02006252WS02006251 (62.07%)
  Link 3 (27.62%)
  Link WS02006238WS02006235 (4.10%)
  Link WS02006280WS02006229 (2.02%)
  
  
  ********************************
  Highest Flow Instability Indexes
  ********************************
  Link WS02006113WS02006111 (37)
  Link WS02006111WS02006112 (21)
  Link YS02006558YS02006561 (15)
  Link YS02164001YS02001641 (12)
  Link YS02001641YS02001644 (11)
  
  
  *************************
  Routing Time Step Summary
  *************************
  Minimum Time Step           :     0.36 sec
  Average Time Step           :     0.87 sec
  Maximum Time Step           :     5.00 sec
  Percent in Steady State     :    -0.00
  Average Iterations per Step :     3.37
  Percent Not Converging      :    16.47
  
  
  ***************************
  Subcatchment Runoff Summary
  ***************************
  
  ------------------------------------------------------------------------------------------------------------------------------
                            Total      Total      Total      Total     Imperv       Perv      Total       Total     Peak  Runoff
                           Precip      Runon       Evap      Infil     Runoff     Runoff     Runoff      Runoff   Runoff   Coeff
  Subcatchment                 mm         mm         mm         mm         mm         mm         mm    10^6 ltr      LPS
  ------------------------------------------------------------------------------------------------------------------------------
  sub0                       6.89       0.00       0.00       0.48       5.14       0.00       5.14        0.00     1.72   0.746
  sub1                       6.89       0.00       0.00       0.76       4.88       0.00       4.88        0.03     9.27   0.708
  sub2                       6.89       0.00       0.00       2.55       3.43       0.00       3.43        0.03     8.25   0.498
  sub3                       6.89       0.00       0.00       2.55       3.40       0.00       3.40        0.08    17.12   0.493
  sub4                       6.89       0.00       0.00       0.76       4.73       0.00       4.73        0.10    19.36   0.687
  sub5                       6.89       0.00       0.00       0.48       5.10       0.00       5.10        0.06    16.48   0.740
  sub7                       6.89       0.00       0.00       0.62       5.02       0.00       5.02        0.02     5.74   0.728
  sub8                       6.89       0.00       0.00       0.62       5.01       0.00       5.01        0.03    10.18   0.727
  sub9                       6.89       0.00       0.00       0.62       5.00       0.00       5.00        0.02     7.56   0.726
  sub10                      6.89       0.00       0.00       0.55       5.05       0.00       5.05        0.06    16.42   0.733
  sub11                      6.89       0.00       0.00       0.55       5.06       0.00       5.06        0.06    19.13   0.735
  sub12                      6.89       0.00       0.00       0.90       4.81       0.00       4.81        0.04    15.99   0.697
  sub14                      6.89       0.00       0.00       0.62       5.00       0.00       5.00        0.05    14.78   0.726
  sub15                      6.89       0.00       0.00       2.07       3.84       0.00       3.84        0.07    20.07   0.558
  sub16                      6.89       0.00       0.00       2.27       3.70       0.00       3.70        0.04    14.12   0.537
  sub17                      6.89       0.00       0.00       2.20       3.75       0.00       3.75        0.03    11.42   0.544
  sub22                      6.89       0.00       0.00       2.96       3.14       0.00       3.14        0.20    65.39   0.456
  sub23                      6.89       0.00       0.00       2.55       3.47       0.00       3.47        0.17    55.59   0.504
  sub60                      6.89       0.00       0.00       0.83       3.52       0.00       3.52        1.07   103.27   0.511
  sub61                      6.89       0.00       0.00       1.17       3.72       0.00       3.72        1.15   128.06   0.540
  sub62                      6.89       0.00       0.00       0.55       4.00       0.00       4.00        1.23   131.31   0.581
  sub63                      6.89       0.00       0.00       2.00       3.30       0.00       3.30        1.00   118.97   0.479
  sub64                      6.89       0.00       0.00       1.03       3.37       0.00       3.37        1.02    98.15   0.488
  sub65                      6.89       0.00       0.00       0.90       3.41       0.00       3.41        1.05    99.66   0.495
  sub66                      6.89       0.00       0.00       2.00       2.93       0.00       2.93        0.90    89.65   0.425
  sub67                      6.89       0.00       0.00       0.55       4.36       0.00       4.36        1.35   166.79   0.633
  sub68                      6.89       0.00       0.00       0.96       3.95       0.00       3.95        1.21   141.17   0.573
  sub69                      6.89       0.00       0.00       1.03       4.22       0.00       4.22        0.99   138.50   0.612
  sub70                      6.89       4.31       0.00       3.81       5.29       0.00       5.29        1.21   116.43   0.473
  sub71                      6.89       0.00       0.00       0.55       3.84       0.00       3.84        0.91    92.03   0.558
  sub72                      6.89       0.00       0.00       0.48       2.78       0.00       2.78        0.57    44.19   0.404
  sub73                      6.89       5.15       0.00       4.09       5.48       0.00       5.48        1.29   100.82   0.455
  sub74                      6.89       0.00       0.00       5.17       1.27       0.00       1.27        0.51    76.91   0.184
  
  
  ******************
  Node Depth Summary
  ******************
  
  ---------------------------------------------------------------------------------
                                 Average  Maximum  Maximum  Time of Max    Reported
                                   Depth    Depth      HGL   Occurrence   Max Depth
  Node                 Type       Meters   Meters   Meters  days hr:min      Meters
  ---------------------------------------------------------------------------------
  WS02001211           JUNCTION     0.68     0.78     5.62     0  02:32        0.78
  WS02001212           JUNCTION     0.40     0.50     5.56     0  02:33        0.50
  WS02001213           JUNCTION     0.63     0.75     5.52     0  02:33        0.75
  WS02003069           JUNCTION     0.45     0.59     5.17     0  02:34        0.59
  WS02003072           JUNCTION     0.51     0.64     5.02     0  02:34        0.64
  WS02003073           JUNCTION     0.31     0.40     4.46     0  02:35        0.40
  WS02003060           JUNCTION     0.40     0.52     5.45     0  02:33        0.52
  WS02003066           JUNCTION     0.23     0.31     5.86     0  02:32        0.31
  WS02003059           JUNCTION     0.69     0.81     5.49     0  02:33        0.81
  WS02003067           JUNCTION     0.57     0.71     6.03     0  02:32        0.71
  WS02004401           JUNCTION     0.67     0.88     6.88     0  02:28        0.88
  WS02004402           JUNCTION     0.70     0.91     6.87     0  02:28        0.91
  WS02004403           JUNCTION     0.72     0.92     6.85     0  02:28        0.92
  WS02004404           JUNCTION     0.80     0.99     6.84     0  02:28        0.99
  WS02004406           JUNCTION     0.80     0.98     6.81     0  02:28        0.98
  WS02004409           JUNCTION     0.49     0.69     6.46     0  02:32        0.69
  WS02004410           JUNCTION     0.51     0.70     6.42     0  02:31        0.70
  WS02004411           JUNCTION     0.52     0.71     6.39     0  02:31        0.71
  WS02004412           JUNCTION     0.54     0.72     6.36     0  02:31        0.72
  WS02004413           JUNCTION     0.70     0.87     6.34     0  02:32        0.87
  WS02004405           JUNCTION     0.79     0.98     6.83     0  02:28        0.98
  WS02006109           JUNCTION     0.75     1.05     7.67     0  02:22        1.02
  WS02006110           JUNCTION     0.74     0.97     7.56     0  02:22        0.96
  WS02006111           JUNCTION     0.22     0.30     7.01     0  02:23        0.30
  WS02006112           JUNCTION     0.84     1.13     7.01     0  02:26        1.12
  WS02006113           JUNCTION     0.34     0.48     7.37     0  02:22        0.48
  WS02006115           JUNCTION     0.56     0.79     6.93     0  02:29        0.79
  WS02006116           JUNCTION     0.64     0.86     6.90     0  02:28        0.86
  WS02006230           JUNCTION     0.73     1.14     7.88     0  02:22        1.10
  WS02006231           JUNCTION     0.49     0.91     8.04     0  02:21        0.77
  WS02006232           JUNCTION     0.62     1.05     8.09     0  02:21        0.90
  WS02006234           JUNCTION     0.54     1.00     8.16     0  02:21        0.83
  WS02006235           JUNCTION     0.58     0.97     8.14     0  02:21        0.86
  WS02006238           JUNCTION     0.60     0.99     8.13     0  02:21        0.88
  WS02006240           JUNCTION     0.50     1.14     8.43     0  02:21        0.78
  WS02006242           JUNCTION     0.56     0.98     8.24     0  02:22        0.84
  WS02006243           JUNCTION     0.44     0.98     8.40     0  02:22        0.73
  WS02006245           JUNCTION     0.42     0.79     8.28     0  02:22        0.71
  WS02006247           JUNCTION     0.44     0.83     8.33     0  02:22        0.70
  WS02006248           JUNCTION     0.39     0.66     8.25     0  02:22        0.63
  WS02006249           JUNCTION     0.42     0.64     8.24     0  02:23        0.64
  WS02006239           JUNCTION     0.56     1.11     8.32     0  02:21        0.84
  WS02006251           JUNCTION     0.41     0.71     8.38     0  02:23        0.69
  WS02006252           JUNCTION     0.37     0.59     8.83     0  02:22        0.59
  WS02006253           JUNCTION     0.44     0.73     8.37     0  02:23        0.72
  WS02006256           JUNCTION     1.02     1.21     8.14     0  03:00        1.21
  WS02004138           JUNCTION     0.16     0.20     7.45     0  00:00        0.19
  WS02004407           JUNCTION     0.22     0.31     6.62     0  02:29        0.31
  WS02006228           JUNCTION     0.75     1.11     7.76     0  02:22        1.07
  WS02006229           JUNCTION     0.73     1.11     7.80     0  02:22        1.08
  WS02006280           JUNCTION     0.06     0.16     8.43     0  02:17        0.16
  WS02006284           JUNCTION     0.35     0.50     8.90     0  02:16        0.50
  WS02006287           JUNCTION     0.09     0.24     9.19     0  02:16        0.24
  WSF200               JUNCTION     0.22     0.32     5.55     0  02:31        0.32
  HS02004901           JUNCTION     0.11     0.25    10.07     0  02:14        0.25
  HS02004881           JUNCTION     0.01     0.03     9.06     0  02:16        0.03
  HS02004876           JUNCTION     0.04     0.11     9.14     0  02:12        0.11
  HS02004870           JUNCTION     0.01     0.05     9.33     0  02:17        0.05
  HS02004862           JUNCTION     0.02     0.05     9.44     0  02:18        0.05
  HS02004856           JUNCTION     0.08     0.11     9.54     0  02:17        0.11
  HS02004852           JUNCTION     0.01     0.03     9.54     0  02:18        0.03
  HS02004848           JUNCTION     0.01     0.03     9.63     0  02:17        0.03
  HS02004842           JUNCTION     0.33     0.36     9.63     0  02:17        0.36
  HS02004837           JUNCTION     0.03     0.05     9.63     0  02:17        0.05
  HS02004830           JUNCTION     0.04     0.07     9.54     0  02:17        0.07
  HS02004824           JUNCTION     0.02     0.04     9.45     0  02:20        0.04
  HS02004817           JUNCTION     0.43     0.54     9.39     0  02:17        0.54
  HS02004807           JUNCTION     0.12     0.22     9.39     0  02:17        0.22
  HS02004802           JUNCTION     0.15     0.26     9.38     0  02:17        0.26
  HS02004799           JUNCTION     0.11     0.28     9.50     0  02:14        0.28
  HS02004792           JUNCTION     0.03     0.11     9.64     0  02:14        0.11
  HS02004788           JUNCTION     0.02     0.08     9.98     0  02:15        0.08
  HS02004785           JUNCTION     0.04     0.15    10.05     0  02:14        0.15
  HS02004777           JUNCTION     0.14     0.27    10.07     0  02:14        0.27
  HS02004770           JUNCTION     0.11     0.24    10.07     0  02:14        0.24
  HS02004480           JUNCTION     0.07     0.22     9.46     0  02:15        0.22
  HS02004479           JUNCTION     0.11     0.26     9.46     0  02:15        0.26
  HS02004478           JUNCTION     0.05     0.14     9.37     0  02:16        0.14
  YS02001745           JUNCTION     0.23     0.40     7.92     0  04:44        0.39
  YS02001748           JUNCTION     0.61     0.82     7.90     0  06:58        0.82
  YS02001751           JUNCTION     0.79     1.63     8.51     0  04:32        1.13
  YS02001754           JUNCTION     1.04     1.73     8.34     0  04:32        1.36
  YS02001762           JUNCTION     1.24     1.66     8.06     0  04:32        1.54
  YS02001765           JUNCTION     1.19     1.65     8.10     0  04:05        1.50
  YS02001767           JUNCTION     1.15     1.70     8.19     0  04:05        1.47
  YS02001770           JUNCTION     1.15     1.80     8.29     0  04:05        1.51
  YS02001774           JUNCTION     1.22     1.90     8.32     0  04:05        1.61
  YS02001779           JUNCTION     0.97     1.66     8.34     0  04:05        1.36
  YS02001882           JUNCTION     0.32     0.53     7.25     0  02:54        0.53
  YS02001884           JUNCTION     0.42     0.63     7.25     0  02:51        0.63
  YS02001759           JUNCTION     1.27     1.69     8.05     0  04:32        1.56
  YS02001887           JUNCTION     0.49     0.71     7.25     0  02:52        0.71
  YS02001890           JUNCTION     0.52     0.74     7.25     0  02:53        0.74
  YS02001898           JUNCTION     0.29     0.50     7.23     0  02:53        0.50
  YS02001901           JUNCTION     0.41     0.62     7.23     0  02:52        0.62
  YS02001904           JUNCTION     0.39     0.60     7.23     0  02:52        0.60
  YS02001907           JUNCTION     0.72     0.94     7.23     0  02:52        0.94
  YS02001910           JUNCTION     0.51     0.72     7.23     0  02:53        0.72
  YS02001915           JUNCTION     0.31     0.51     7.23     0  02:53        0.51
  YS02001918           JUNCTION     0.09     0.16     7.23     0  02:54        0.16
  YS02001619           JUNCTION     0.75     0.97     7.90     0  06:57        0.96
  YS02001629           JUNCTION     1.10     1.36     7.91     0  06:58        1.35
  YS02001641           JUNCTION     1.21     1.53     7.97     0  04:21        1.46
  YS02001644           JUNCTION     1.21     1.53     7.96     0  04:22        1.47
  YS02001652           JUNCTION     1.05     1.69     8.28     0  04:04        1.32
  YS02001655           JUNCTION     0.82     1.68     8.53     0  04:21        1.10
  YS02001920           JUNCTION     0.19     0.24     7.25     0  02:55        0.24
  YS02001923           JUNCTION     0.07     0.10     7.36     0  03:01        0.10
  YS02001926           JUNCTION     0.16     0.20     7.64     0  03:01        0.20
  YS02001929           JUNCTION     0.07     0.10     7.79     0  03:01        0.10
  YS02001658           JUNCTION     0.55     0.77     7.91     0  06:56        0.76
  YS02001661           JUNCTION     0.33     0.50     7.91     0  06:56        0.49
  YS02001664           JUNCTION     0.08     0.13     8.06     0  02:45        0.13
  YS02001622           JUNCTION     0.77     1.00     7.90     0  06:57        0.99
  YS02001633           JUNCTION     1.19     1.48     7.94     0  04:21        1.45
  YS02001649           JUNCTION     1.25     1.62     8.01     0  04:21        1.51
  YS02001757           JUNCTION     1.37     1.77     8.04     0  04:32        1.65
  YS02001895           JUNCTION     0.29     0.49     7.24     0  02:53        0.49
  YS02001625           JUNCTION     1.05     1.29     7.90     0  06:57        1.29
  YS02163301           JUNCTION     1.13     1.39     7.91     0  04:21        1.38
  YS02163601           JUNCTION     1.24     1.57     7.97     0  04:21        1.50
  YS02164001           JUNCTION     1.19     1.51     7.97     0  04:21        1.44
  YS02001647           JUNCTION     1.04     1.40     8.01     0  04:21        1.30
  YSB1154              JUNCTION     0.24     0.41     9.47     0  02:15        0.41
  YSB6556              JUNCTION     0.14     0.30     9.47     0  02:15        0.30
  YSB1174              JUNCTION     0.20     0.36     9.47     0  02:15        0.36
  YSB1171              JUNCTION     0.39     0.56     9.47     0  02:15        0.56
  YS02006553           JUNCTION     0.72     0.94     7.23     0  02:56        0.94
  YS02006561           JUNCTION     0.16     0.27     6.93     0  02:55        0.27
  YS02006556           JUNCTION     0.70     0.91     7.22     0  02:54        0.91
  YS02006558           JUNCTION     0.74     0.96     7.22     0  02:54        0.95
  YS02001783           JUNCTION     0.29     0.59     6.73     0  03:28        0.58
  YS02001784           JUNCTION     0.33     0.65     6.72     0  03:29        0.65
  YS02001786           JUNCTION     0.29     0.67     6.70     0  03:29        0.66
  YS02001788           JUNCTION     0.23     0.70     6.67     0  03:29        0.68
  YS02001790           JUNCTION     0.30     1.96     7.60     0  03:25        1.00
  YS02001791           JUNCTION     0.25     2.12     7.59     0  03:23        1.15
  YS02001793           JUNCTION     0.28     2.44     7.27     0  03:21        1.78
  WS02004139           JUNCTION     0.62     0.72     5.63     0  02:32        0.72
  WSC                  OUTFALL      0.31     0.40     1.07     0  02:35        0.40
  3                    OUTFALL      0.09     0.21     6.21     0  03:00        0.21
  4                    OUTFALL      0.02     0.14     7.14     0  02:23        0.14
  5                    OUTFALL      0.00     0.00     5.00     0  00:00        0.00
  JK-storage           STORAGE      1.25     5.80     6.60     0  03:27        5.80
  CC-storage           STORAGE      0.60     0.89     7.89     0  06:57        0.89
  XR-storage           STORAGE      6.25     7.72     5.72     0  03:44        7.72
  
  
  *******************
  Node Inflow Summary
  *******************
  
  -------------------------------------------------------------------------------------------------
                                  Maximum  Maximum                  Lateral       Total        Flow
                                  Lateral    Total  Time of Max      Inflow      Inflow     Balance
                                   Inflow   Inflow   Occurrence      Volume      Volume       Error
  Node                 Type           LPS      LPS  days hr:min    10^6 ltr    10^6 ltr     Percent
  -------------------------------------------------------------------------------------------------
  WS02001211           JUNCTION      7.35   387.50     0  07:49       0.207         7.4       0.539
  WS02001212           JUNCTION      0.00   387.29     0  07:49           0        7.36       0.307
  WS02001213           JUNCTION      0.00   387.01     0  07:49           0        7.34       0.386
  WS02003069           JUNCTION      0.32   951.13     0  02:33     0.00902        14.7       0.209
  WS02003072           JUNCTION      0.00   951.10     0  02:34           0        14.7       0.257
  WS02003073           JUNCTION      1.82   953.16     0  02:34      0.0514        14.7       0.287
  WS02003060           JUNCTION     16.53   950.23     0  02:32       0.466        14.7       0.200
  WS02003066           JUNCTION      0.00   571.37     0  02:32           0        6.98       0.054
  WS02003059           JUNCTION      0.00   386.51     0  07:48           0        7.32       0.537
  WS02003067           JUNCTION      0.00   571.24     0  02:32           0        6.99       0.119
  WS02004401           JUNCTION      0.00   580.65     0  02:26           0         7.2       0.286
  WS02004402           JUNCTION      0.00   578.37     0  02:28           0        7.18       0.271
  WS02004403           JUNCTION      0.00   578.38     0  02:28           0        7.16       0.247
  WS02004404           JUNCTION      0.16   577.97     0  02:28     0.00457        7.15       0.187
  WS02004406           JUNCTION      0.00   577.54     0  02:29           0        7.12       0.456
  WS02004409           JUNCTION      0.00   577.17     0  02:29           0        7.08       0.201
  WS02004410           JUNCTION      0.00   573.71     0  02:30           0        7.07       0.226
  WS02004411           JUNCTION      0.00   572.35     0  02:31           0        7.05       0.233
  WS02004412           JUNCTION      0.00   571.72     0  02:31           0        7.03       0.254
  WS02004413           JUNCTION      0.00   571.40     0  02:31           0        7.02       0.383
  WS02004405           JUNCTION      0.04   578.13     0  02:28     0.00107        7.14       0.280
  WS02006109           JUNCTION      1.23   596.28     0  02:22      0.0347        7.29       0.267
  WS02006110           JUNCTION      0.00   596.31     0  02:22           0        7.27       0.271
  WS02006111           JUNCTION      0.00   619.60     0  02:22           0        7.24       0.059
  WS02006112           JUNCTION     11.42   610.16     0  02:23      0.0322        7.27       0.396
  WS02006113           JUNCTION      0.00   600.42     0  02:22           0        7.25       0.138
  WS02006115           JUNCTION      0.00   614.04     0  02:23           0        7.24       0.264
  WS02006116           JUNCTION      0.00   593.56     0  02:23           0        7.22       0.252
  WS02006230           JUNCTION     10.28   399.98     0  04:02        0.29        6.24       0.232
  WS02006231           JUNCTION      0.00   390.72     0  04:02           0        5.96       0.162
  WS02006232           JUNCTION      0.00   390.77     0  04:02           0        5.97       0.274
  WS02006234           JUNCTION      0.00   391.71     0  04:01           0        5.98       0.141
  WS02006235           JUNCTION      0.00   391.75     0  04:01           0        6.02       0.170
  WS02006238           JUNCTION      0.00   310.56     0  06:02           0        4.19       0.183
  WS02006240           JUNCTION      0.00   314.43     0  06:01           0        4.18       0.281
  WS02006242           JUNCTION      0.00   330.19     0  02:20           0        4.19       0.343
  WS02006243           JUNCTION      0.00   348.68     0  02:21           0        4.18       0.008
  WS02006245           JUNCTION      0.00   360.07     0  02:20           0        4.19       0.261
  WS02006247           JUNCTION      0.00   367.38     0  02:20           0         4.2       0.176
  WS02006248           JUNCTION      0.00   374.71     0  02:20           0         4.2       0.066
  WS02006249           JUNCTION      0.00   461.19     0  02:23           0        4.52       0.266
  WS02006239           JUNCTION      0.00   311.46     0  06:02           0        4.19       0.250
  WS02006251           JUNCTION      0.08   470.53     0  02:23     0.00217        4.55       0.193
  WS02006252           JUNCTION      0.00   400.00     0  02:20           0        4.35       0.010
  WS02006253           JUNCTION      1.72    52.04     0  02:16     0.00416       0.202       1.831
  WS02006256           JUNCTION      0.00   600.00     0  04:00           0        4.86       0.064
  WS02004138           JUNCTION      0.00   380.00     0  00:00           0        7.24       0.090
  WS02004407           JUNCTION      0.00   577.26     0  02:28           0        7.09       0.096
  WS02006228           JUNCTION      0.00   595.00     0  02:22           0        7.27       0.208
  WS02006229           JUNCTION      0.00   596.50     0  02:22           0        7.29       0.189
  WS02006280           JUNCTION      0.00   261.72     0  02:17           0        1.06       0.006
  WS02006284           JUNCTION      0.10   261.71     0  02:16      0.0027        1.06       0.103
  WS02006287           JUNCTION      0.00   261.60     0  02:16           0        1.06       0.068
  WSF200               JUNCTION      0.00   571.45     0  02:32           0        6.98       0.048
  HS02004901           JUNCTION     14.12    14.12     0  02:09      0.0387      0.0388       4.739
  HS02004881           JUNCTION      5.74    50.69     0  02:16      0.0169       0.179       0.208
  HS02004876           JUNCTION      9.27    45.23     0  02:16      0.0324       0.163       0.328
  HS02004870           JUNCTION     10.18    36.13     0  02:16       0.032        0.13       0.082
  HS02004862           JUNCTION      8.45    26.57     0  02:17      0.0376      0.0985       0.171
  HS02004856           JUNCTION      7.56    18.17     0  02:16      0.0241      0.0623       2.370
  HS02004852           JUNCTION      0.00    11.06     0  02:17           0      0.0383       0.136
  HS02004848           JUNCTION     17.12    17.12     0  02:20      0.0765      0.0765       0.058
  HS02004842           JUNCTION      0.00     6.65     0  02:29           0      0.0512      34.060
  HS02004837           JUNCTION     22.77    28.31     0  02:16       0.235       0.273       0.299
  HS02004830           JUNCTION      0.15    28.44     0  02:17     0.00423       0.263       0.471
  HS02004824           JUNCTION     19.41    47.61     0  02:20         0.1       0.362       0.149
  HS02004817           JUNCTION      0.60    48.20     0  02:20      0.0169       0.378       4.606
  HS02004807           JUNCTION     19.13    65.70     0  02:18      0.0588       0.421       1.015
  HS02004802           JUNCTION      0.00    66.13     0  02:19           0       0.416       0.983
  HS02004799           JUNCTION     14.78   167.11     0  02:14      0.0476       0.565       0.407
  HS02004792           JUNCTION     65.67   152.55     0  02:13       0.206       0.517       0.079
  HS02004788           JUNCTION     21.74    88.73     0  02:14       0.113       0.313       0.125
  HS02004785           JUNCTION      0.15    67.27     0  02:14     0.00423       0.201       0.241
  HS02004777           JUNCTION      0.03    67.55     0  02:12    0.000846       0.202       2.635
  HS02004770           JUNCTION     55.59    68.62     0  02:11       0.165       0.203       1.552
  HS02004480           JUNCTION      0.00   197.18     0  02:15           0       0.661       0.114
  HS02004479           JUNCTION      0.00    30.69     0  02:16           0       0.109       0.674
  HS02004478           JUNCTION      0.00   261.58     0  02:16           0        1.06       0.057
  YS02001745           JUNCTION    103.27   167.02     0  04:31        1.07        1.15       0.448
  YS02001748           JUNCTION      0.04   191.86     0  04:32     0.00127        1.17       1.459
  YS02001751           JUNCTION      0.01   233.58     0  04:32     0.00031        1.07       2.071
  YS02001754           JUNCTION      0.26   135.82     0  03:47     0.00733        1.03       2.318
  YS02001762           JUNCTION      0.00   141.57     0  02:47           0        1.16       1.830
  YS02001765           JUNCTION      0.00   142.85     0  02:33           0        1.17       2.108
  YS02001767           JUNCTION      0.54   150.47     0  02:33      0.0151        1.19       3.082
  YS02001770           JUNCTION    131.47   158.63     0  02:33        1.23        1.27       2.480
  YS02001774           JUNCTION      0.00    49.60     0  02:14           0        0.11      29.475
  YS02001779           JUNCTION      0.01    41.84     0  03:43    0.000141      0.0482      37.601
  YS02001882           JUNCTION      0.00     4.88     0  02:07           0     0.00652      37.963
  YS02001884           JUNCTION      0.00    13.65     0  02:10           0      0.0258      24.869
  YS02001759           JUNCTION    128.10   270.75     0  02:47        1.15        2.28       1.014
  YS02001887           JUNCTION    167.24   167.24     0  02:42        1.36        1.37       0.545
  YS02001890           JUNCTION      0.00   166.52     0  02:40           0        1.34       0.609
  YS02001898           JUNCTION      0.00   166.19     0  02:52           0        1.33       0.182
  YS02001901           JUNCTION      0.00   166.71     0  02:52           0        1.33       0.437
  YS02001904           JUNCTION      0.00   167.07     0  02:52           0        1.33       0.406
  YS02001907           JUNCTION      0.00   310.30     0  02:55           0        2.86       0.791
  YS02001910           JUNCTION      0.00   143.20     0  02:55           0        1.55       0.682
  YS02001915           JUNCTION     92.05   139.87     0  02:58       0.908        1.55       0.315
  YS02001918           JUNCTION      0.00    47.37     0  03:03           0       0.645       0.200
  YS02001619           JUNCTION     89.65   103.61     0  04:13       0.897       0.902       1.292
  YS02001629           JUNCTION      0.00   198.78     0  04:12           0       0.858       3.253
  YS02001641           JUNCTION      0.00   210.53     0  02:36           0        1.77       1.196
  YS02001644           JUNCTION     98.19   300.77     0  02:36        1.02        2.77       0.950
  YS02001652           JUNCTION      0.00   160.95     0  02:54           0       0.956       2.224
  YS02001655           JUNCTION      0.15   263.39     0  04:05     0.00434        1.02       2.561
  YS02001920           JUNCTION      2.87    47.04     0  03:01      0.0809       0.647       0.347
  YS02001923           JUNCTION      0.04    44.17     0  03:01     0.00106       0.566       0.062
  YS02001926           JUNCTION      0.05    44.22     0  03:01     0.00147       0.568       0.431
  YS02001929           JUNCTION     44.19    44.19     0  03:01       0.567       0.567       0.060
  YS02001658           JUNCTION      0.00   244.74     0  04:02           0        1.13       1.590
  YS02001661           JUNCTION      0.00   206.68     0  04:12           0         1.1       0.832
  YS02001664           JUNCTION    118.97   118.97     0  02:45       0.998       0.998       0.008
  YS02001622           JUNCTION      0.00   138.76     0  04:14           0       0.931       3.412
  YS02001633           JUNCTION     99.86   218.00     0  02:36        1.05        1.83       1.775
  YS02001649           JUNCTION      0.00   426.00     0  03:00           0        3.63       1.026
  YS02001757           JUNCTION      0.00   760.97     0  03:00           0        6.82       1.369
  YS02001895           JUNCTION      0.00   165.79     0  02:46           0        1.33       0.298
  YS02001625           JUNCTION      0.00   199.31     0  04:13           0       0.932       4.314
  YS02163301           JUNCTION      0.00   142.98     0  02:36           0       0.805       3.043
  YS02163601           JUNCTION      0.11   209.45     0  02:36      0.0031        1.79       1.703
  YS02164001           JUNCTION      0.00   207.96     0  02:36           0        1.77       1.139
  YS02001647           JUNCTION      0.00   303.51     0  02:36           0        2.73       0.935
  YSB1154              JUNCTION     16.48    16.48     0  02:14      0.0577       0.059       2.509
  YSB6556              JUNCTION      0.00    16.52     0  02:15           0      0.0599       2.126
  YSB1174              JUNCTION     15.99    15.99     0  02:08       0.042      0.0429       3.083
  YSB1171              JUNCTION      0.00    30.60     0  02:14           0       0.108       6.195
  YS02006553           JUNCTION      0.00   308.36     0  02:56           0        2.85       0.512
  YS02006561           JUNCTION      0.00   473.65     0  02:53           0        4.04       0.007
  YS02006556           JUNCTION      0.00   309.36     0  02:55           0        2.86       0.371
  YS02006558           JUNCTION    142.05   454.98     0  02:54        1.24        4.07       0.125
  YS02001783           JUNCTION      0.00   447.95     0  02:53           0        4.04       0.043
  YS02001784           JUNCTION      1.06   447.59     0  02:55      0.0299        4.07       0.068
  YS02001786           JUNCTION      0.06   446.76     0  02:54     0.00159        4.06       0.066
  YS02001788           JUNCTION      0.07   446.76     0  02:54       0.002        4.06       0.038
  YS02001790           JUNCTION      0.15   446.96     0  02:55     0.00437        4.07       0.043
  YS02001791           JUNCTION      0.00   446.72     0  02:55           0        4.07       0.022
  YS02001793           JUNCTION      0.00   446.75     0  02:55           0        4.06       0.009
  WS02004139           JUNCTION      0.32   393.28     0  00:00     0.00905        7.24       0.621
  WSC                  OUTFALL       0.00   953.62     0  02:35           0        14.6       0.000
  3                    OUTFALL       0.00   511.13     0  03:00           0           3       0.000
  4                    OUTFALL       0.00   194.96     0  02:23           0       0.311       0.000
  5                    OUTFALL       0.00     0.00     0  00:00           0           0       0.000 ltr
  JK-storage           STORAGE       0.00   629.61     0  03:20           0        4.22     -16.593
  CC-storage           STORAGE       0.00   761.19     0  03:00           0        6.72       0.040
  XR-storage           STORAGE     366.60   366.60     0  02:56        7.43        8.03      -0.000
  
  
  **********************
  Node Surcharge Summary
  **********************
  
  Surcharging occurs when water rises above the top of the highest conduit.
  ---------------------------------------------------------------------
                                               Max. Height   Min. Depth
                                   Hours       Above Crown    Below Rim
  Node                 Type      Surcharged         Meters       Meters
  ---------------------------------------------------------------------
  WS02006109           JUNCTION        1.60          0.231        1.589
  WS02006110           JUNCTION        0.32          0.062        1.788
  WS02006112           JUNCTION        0.64          0.125        1.555
  WS02006230           JUNCTION        0.02          0.059        1.511
  WS02006231           JUNCTION        0.17          0.203        1.327
  WS02006232           JUNCTION        1.68          0.353        1.127
  WS02006234           JUNCTION        0.46          0.283        0.957
  WS02006235           JUNCTION        0.99          0.265        1.025
  WS02006238           JUNCTION        1.36          0.266        1.164
  WS02006240           JUNCTION        0.39          0.430        0.960
  WS02006242           JUNCTION        0.82          0.245        0.575
  WS02006243           JUNCTION        0.15          0.275        0.495
  WS02006245           JUNCTION        0.01          0.081        0.769
  WS02006247           JUNCTION        0.01          0.117        0.643
  WS02006239           JUNCTION        0.56          0.369        0.921
  WS02006252           JUNCTION        1.63          0.193        0.907
  WS02006228           JUNCTION        1.50          0.278        1.922
  YS02001751           JUNCTION        0.43          0.629        0.571
  YS02001754           JUNCTION        4.11          0.681        0.469
  YS02001762           JUNCTION        5.35          0.655        0.495
  YS02001765           JUNCTION        5.31          0.650        0.450
  YS02001767           JUNCTION        5.16          0.696        0.334
  YS02001770           JUNCTION        5.11          0.767        0.153
  YS02001774           JUNCTION        5.34          0.896        0.154
  YS02001779           JUNCTION        3.95          0.656        0.024
  YS02001759           JUNCTION        5.38          0.689        0.521
  YS02001641           JUNCTION        5.33          0.531        0.569
  YS02001644           JUNCTION        5.33          0.528        0.392
  YS02001652           JUNCTION        4.42          0.657        0.473
  YS02001655           JUNCTION        1.94          0.680        0.520
  YS02001633           JUNCTION        5.28          0.461        0.599
  YS02001649           JUNCTION        5.36          0.620        0.430
  YS02001757           JUNCTION        5.46          0.775        0.435
  YS02001625           JUNCTION        4.98          0.294        0.486
  YS02163301           JUNCTION        5.14          0.389        0.641
  YS02163601           JUNCTION        5.36          0.568        0.512
  YS02164001           JUNCTION        5.31          0.514        0.586
  YS02001647           JUNCTION        4.82          0.398        0.502
  YS02001790           JUNCTION        0.48          1.157        0.000
  YS02001791           JUNCTION        0.54          1.320        0.600
  YS02001793           JUNCTION        0.62          1.438        1.162
  
  
  *********************
  Node Flooding Summary
  *********************
  
  Flooding refers to all water that overflows a node, whether it ponds or not.
  --------------------------------------------------------------------------
                                                             Total   Maximum
                                 Maximum   Time of Max       Flood    Ponded
                        Hours       Rate    Occurrence      Volume     Depth
  Node                 Flooded       LPS   days hr:min    10^6 ltr    Meters
  --------------------------------------------------------------------------
  YS02001790              0.01     73.67      0  03:25       0.000     0.000
  JK-storage              0.36    302.32      0  03:40       0.192     0.000
  XR-storage              0.76    126.28      0  03:44       0.158     0.000
  
  
  **********************
  Storage Volume Summary
  **********************
  
  --------------------------------------------------------------------------------------------------
                         Average     Avg  Evap Exfil       Maximum     Max    Time of Max    Maximum
                          Volume    Pcnt  Pcnt  Pcnt        Volume    Pcnt     Occurrence    Outflow
  Storage Unit           1000 m3    Full  Loss  Loss       1000 m3    Full    days hr:min        LPS
  --------------------------------------------------------------------------------------------------
  JK-storage               0.063      22     0     0         0.291     100       0  03:27     600.00
  CC-storage               1.665      11     0     0         2.478      16       0  06:57     400.00
  XR-storage               0.749      81     0     0         0.926     100       0  03:44     380.00
  
  
  ***********************
  Outfall Loading Summary
  ***********************
  
  -----------------------------------------------------------
                         Flow       Avg       Max       Total
                         Freq      Flow      Flow      Volume
  Outfall Node           Pcnt       LPS       LPS    10^6 ltr
  -----------------------------------------------------------
  WSC                   99.99    601.68    953.62      14.635
  3                     81.37    190.10    511.13       3.000
  4                     31.25     53.54    194.96       0.311
  5                      0.00      0.00      0.00       0.000
  -----------------------------------------------------------
  System                53.15    845.32   1284.11      17.946
  
  
  ********************
  Link Flow Summary
  ********************
  
  -----------------------------------------------------------------------------
                                 Maximum  Time of Max   Maximum    Max/    Max/
                                  |Flow|   Occurrence   |Veloc|    Full    Full
  Link                 Type          LPS  days hr:min     m/sec    Flow   Depth
  -----------------------------------------------------------------------------
  WS02003066WSF200     CONDUIT    571.45     0  02:32      2.78    0.10    0.24
  WS02006287WS02006284 CONDUIT    261.62     0  02:16      1.76    0.12    0.24
  WS02006284WS02006280 CONDUIT    261.72     0  02:17      2.00    0.11    0.22
  WS02006280WS02006229 CONDUIT    261.72     0  02:17      3.22    0.06    0.16
  WS02006229WS02006228 CONDUIT    595.00     0  02:22      1.18    1.97    1.00
  WS02006256WS02006235 CONDUIT    166.25     0  00:01      2.58    1.76    1.00
  WS02006253WS02006251 CONDUIT     70.46     0  02:23      0.53    0.21    1.00
  WS02006252WS02006251 CONDUIT    400.24     0  02:21      3.18    1.47    1.00
  WS02006251WS02006249 CONDUIT    461.19     0  02:23      1.26    1.33    0.96
  WS02006249WS02006248 CONDUIT    374.71     0  02:20      1.20    2.05    0.91
  WS02006248WS02006247 CONDUIT    367.38     0  02:20      1.17    0.80    0.97
  WS02006247WS02006245 CONDUIT    360.07     0  02:20      1.14    2.86    1.00
  WS02006245WS02006243 CONDUIT    348.68     0  02:21      1.19    1.03    1.00
  WS02006243WS02006242 CONDUIT    330.19     0  02:20      0.99    0.71    1.00
  WS02006242WS02006240 CONDUIT    314.43     0  06:01      0.86    1.25    1.00
  WS02006240WS02006239 CONDUIT    311.46     0  06:02      0.92    0.98    1.00
  WS02006239WS02006238 CONDUIT    310.56     0  06:02      0.84    0.99    1.00
  WS02006238WS02006235 CONDUIT    310.43     0  06:02      1.25    0.69    1.00
  WS02006235WS02006234 CONDUIT    391.71     0  04:01      1.06    4.13    1.00
  WS02006234WS02006232 CONDUIT    390.77     0  04:02      1.13    0.79    1.00
  WS02006232WS02006231 CONDUIT    390.72     0  04:02      1.06    0.82    1.00
  WS02006231WS02006230 CONDUIT    389.70     0  04:02      1.32    5.91    1.00
  WS02006230WS02006229 CONDUIT    399.43     0  04:03      1.04    8.89    1.00
  WS02006228WS02006109 CONDUIT    595.05     0  02:22      1.18    2.60    1.00
  WS02006116WS02004401 CONDUIT    580.65     0  02:26      0.84    0.80    0.87
  WS02006115WS02006116 CONDUIT    593.56     0  02:23      0.96    0.76    0.80
  WS02006113WS02006111 CONDUIT    619.60     0  02:22      2.55    0.74    0.49
  WS02006112WS02006115 CONDUIT    614.04     0  02:23      0.86    0.36    0.89
  WS02006111WS02006112 CONDUIT    601.63     0  02:23      1.64    0.29    0.68
  WS02006110WS02006113 CONDUIT    600.42     0  02:22      1.39    0.55    0.80
  WS02006109WS02006110 CONDUIT    596.31     0  02:22      1.19    1.15    1.00
  WS02004411WS02004412 CONDUIT    571.72     0  02:31      0.95    0.81    0.71
  WS02004401WS02004402 CONDUIT    578.37     0  02:28      0.79    0.69    0.90
  WS02004413WS02003067 CONDUIT    571.24     0  02:32      1.15    0.24    0.61
  WS02004412WS02004413 CONDUIT    571.40     0  02:31      0.85    0.38    0.79
  WS02004410WS02004411 CONDUIT    572.35     0  02:31      0.97    0.78    0.71
  WS02004409WS02004410 CONDUIT    573.71     0  02:30      1.02    0.74    0.70
  WS02004407WS02004409 CONDUIT    577.17     0  02:29      1.55    0.20    0.50
  WS02004406WS02004407 CONDUIT    577.26     0  02:28      1.08    0.26    0.64
  WS02004405WS02004406 CONDUIT    577.54     0  02:29      0.74    1.14    0.98
  WS02004404WS02004405 CONDUIT    578.09     0  02:28      0.84    5.66    0.99
  WS02004403WS02004404 CONDUIT    577.80     0  02:28      0.75    0.42    0.96
  WS02004402WS02004403 CONDUIT    578.38     0  02:28      0.77    0.83    0.91
  WS02004139WS02001211 CONDUIT    380.16     0  07:49      0.90    0.48    0.58
  WS02004138WS02004139 CONDUIT    392.96     0  00:00      3.64    0.08    0.43
  WS02003067WS02003066 CONDUIT    571.37     0  02:32      1.25    0.18    0.42
  WS02001213WS02003059 CONDUIT    386.51     0  07:48      0.90    0.64    0.77
  WS02001212WS02001213 CONDUIT    387.01     0  07:49      1.31    0.60    0.47
  WS02001211WS02001212 CONDUIT    387.29     0  07:49      0.78    0.30    0.64
  WS02003072WS02003073 CONDUIT    951.34     0  02:34      1.73    2.05    0.49
  WS02003069WS02003072 CONDUIT    951.10     0  02:34      1.63    0.46    0.51
  WS02003060WS02003069 CONDUIT    950.81     0  02:33      1.87    0.37    0.46
  WS02003059WS02003060 CONDUIT    385.71     0  07:48      0.93    0.25    0.66
  HS02004901HS02004770 CONDUIT     13.25     0  02:12      0.05    0.05    0.35
  HS02004876HS02004881 CONDUIT     45.38     0  02:16      0.68    0.48    0.10
  HS02004870HS02004876 CONDUIT     36.11     0  02:17      0.47    0.02    0.11
  HS02004842HS02004848 CONDUIT      6.65     0  02:29      0.03    0.00    0.28
  HS02004837HS02004842 CONDUIT      6.88     0  02:30      0.41    0.00    0.30
  HS02004830HS02004837 CONDUIT     28.29     0  02:17      0.48    0.03    0.08
  HS02004824HS02004830 CONDUIT     28.44     0  02:17      0.51    0.04    0.08
  HS02004817HS02004824 CONDUIT     47.60     0  02:20      0.17    0.02    0.42
  HS02004770HS02004777 CONDUIT     67.52     0  02:12      0.27    0.12    0.36
  HS02004799HS02004480 CONDUIT    166.88     0  02:14      0.67    0.21    0.35
  HS02004792HS02004799 CONDUIT    152.47     0  02:14      0.77    0.09    0.28
  HS02004788HS02004792 CONDUIT     88.67     0  02:15      0.91    0.06    0.14
  HS02004785HS02004788 CONDUIT     67.18     0  02:14      0.58    0.51    0.17
  HS02004777HS02004785 CONDUIT     67.12     0  02:14      0.32    0.08    0.30
  HS02004480HS02004478 CONDUIT    197.15     0  02:15      1.06    0.83    0.26
  HS02004479HS02004480 CONDUIT     30.93     0  02:16      0.16    0.03    0.34
  HS02004862HS02004870 CONDUIT     26.53     0  02:18      0.52    0.03    0.07
  HS02004848HS02004852 CONDUIT     11.06     0  02:17      0.35    0.01    0.05
  HS02004856HS02004862 CONDUIT     18.14     0  02:17      0.38    0.02    0.07
  HS02004852HS02004856 CONDUIT     11.02     0  02:18      0.16    0.01    0.10
  HS02004802HS02004478 CONDUIT     66.64     0  02:20      0.34    0.06    0.29
  HS02004478WS02006287 CONDUIT    261.60     0  02:16      1.45    0.07    0.20
  HS02004817HS02004807 CONDUIT     48.93     0  02:22      0.13    0.03    0.55
  HS02004807HS02004802 CONDUIT     66.13     0  02:19      0.29    0.13    0.33
  YS02001759YS02001757 CONDUIT    271.25     0  02:47      0.35    0.19    1.00
  YS02001762YS02001759 CONDUIT    142.72     0  02:47      0.18    0.16    1.00
  YS02001765YS02001762 CONDUIT    141.57     0  02:47      0.23    0.13    1.00
  YS02001770YS02001767 CONDUIT    149.94     0  02:33      0.30    0.59    1.00
  YS02001774YS02001770 CONDUIT     49.60     0  02:14      0.14    0.03    1.00
  YS02001779YS02001774 CONDUIT     41.84     0  03:43      0.07    0.02    1.00
  YS02001649YS02001757 CONDUIT    427.03     0  02:48      0.54    0.26    1.00
  YS02001767YS02001765 CONDUIT    142.85     0  02:33      0.26    0.18    1.00
  YS02006561YS02001783 CONDUIT    447.95     0  02:53      1.95    0.23    0.51
  YS02001783YS02001784 CONDUIT    446.53     0  02:55      1.39    0.62    0.77
  YS02001784YS02001785 CONDUIT    446.70     0  02:54      1.49    1.04    0.82
  YS02001788YS02001790 CONDUIT    446.81     0  02:55      2.04    0.33    0.94
  YS02001790YS02001791 CONDUIT    446.72     0  02:55      2.36    0.49    1.00
  YS02001791YS02001793 CONDUIT    446.75     0  02:55      4.89    0.19    1.00
  YS02001910YS02001907 CONDUIT    143.11     0  02:55      0.49    0.08    0.83
  YS02001786YS02001788 CONDUIT    446.69     0  02:54      1.94    0.86    0.85
  YS02001915YS02001910 CONDUIT    143.20     0  02:55      0.45    0.07    0.62
  YS02001918YS02001915 CONDUIT     49.45     0  03:07      0.44    0.03    0.34
  YS02001923YS02001920 CONDUIT     44.17     0  03:01      0.51    0.02    0.17
  YS02001926YS02001923 CONDUIT     44.13     0  03:01      0.56    0.06    0.16
  YS02001929YS02001926 CONDUIT     44.17     0  03:01      0.60    0.02    0.15
  YS02001920YS02001918 CONDUIT     47.37     0  03:03      0.52    0.05    0.20
  YS02001629YS02163301 CONDUIT    142.98     0  02:36      0.18    0.18    1.00
  YS02001619YS02001622 CONDUIT    138.76     0  04:14      0.70    0.20    0.98
  YS02001622YS02001625 CONDUIT    199.31     0  04:13      0.29    0.11    1.00
  YS02001625YS02001629 CONDUIT    198.78     0  04:12      0.28    0.09    0.99
  YS02163301YS02001633 CONDUIT    126.33     0  02:36      0.16    0.12    1.00
  YS02163601YS02164001 CONDUIT    207.96     0  02:36      0.26    0.18    1.00
  YS02164001YS02001641 CONDUIT    210.53     0  02:36      0.27    0.29    1.00
  YS02001641YS02001644 CONDUIT    210.49     0  02:36      0.27    0.68    1.00
  YS02001647YS02001649 CONDUIT    322.06     0  02:35      0.42    0.17    1.00
  YS02006553YS02006556 CONDUIT    309.36     0  02:55      0.41    0.26    0.91
  YS02006556YS02006558 CONDUIT    314.16     0  02:54      0.41    0.25    0.93
  YSB6556YSB1171       CONDUIT     16.80     0  02:18      0.07    0.02    0.61
  YS02001907YS02006553 CONDUIT    308.36     0  02:56      0.34    0.36    1.00
  YS02006558YS02006561 CONDUIT    473.65     0  02:53      2.69    1.05    0.60
  YS02001633YS02163601 CONDUIT    209.34     0  02:36      0.27    0.22    1.00
  YS02001644YS02001647 CONDUIT    303.51     0  02:36      0.40    0.18    1.00
  YS02001745YS02001748 CONDUIT    191.81     0  04:32      1.50    0.07    0.56
  YS02001748YS02001751 CONDUIT    233.57     0  04:32      1.16    0.12    0.91
  YS02001751YS02001754 CONDUIT    135.56     0  03:47      1.00    0.07    1.00
  YS02001754YS02001757 CONDUIT    136.07     0  03:03      0.33    0.05    1.00
  YS02001882YS02001884 CONDUIT      4.88     0  02:07      0.06    0.01    0.55
  YS02001884YS02001887 CONDUIT     13.65     0  02:10      0.06    0.02    0.65
  YS02001890YS02001895 CONDUIT    165.79     0  02:46      0.33    0.08    0.62
  YS02001895YS02001898 CONDUIT    166.19     0  02:52      0.49    0.29    0.48
  YS02001898YS02001901 CONDUIT    166.71     0  02:52      0.37    0.11    0.56
  YS02001901YS02001904 CONDUIT    167.07     0  02:52      0.33    0.26    0.61
  YS02001904YS02001907 CONDUIT    167.20     0  02:55      0.26    0.06    0.77
  YS02001887YS02001890 CONDUIT    166.52     0  02:40      0.29    0.28    0.70
  YS02001652YS02001649 CONDUIT    155.11     0  02:53      0.33    0.08    1.00
  YS02001655YS02001652 CONDUIT    160.95     0  02:54      1.07    0.08    1.00
  YS02001658YS02001655 CONDUIT    250.23     0  04:05      1.34    0.11    0.88
  YS02001661YS02001658 CONDUIT    244.74     0  04:02      1.56    0.10    0.59
  YS02001664YS02001661 CONDUIT    118.97     0  02:45      1.29    0.04    0.28
  YSB1154YSB6556       CONDUIT     16.52     0  02:15      0.19    0.03    0.50
  YSB1174YSB1171       CONDUIT     14.89     0  02:09      0.06    0.02    0.62
  YSB1171HS02004479    CONDUIT     30.69     0  02:16      0.54    0.02    0.48
  HS02004881HS02006253 CONDUIT     50.69     0  02:16      1.84    0.01    0.30
  YS02001793JiankangQianchi CONDUIT    629.61     0  03:20     13.80    0.05    1.00
  YS02001757CaochengTiaoxuchi CONDUIT    761.19     0  03:00      1.80    0.33    0.94
  WSF200WS02003060     CONDUIT    571.96     0  02:32      1.80    0.13    0.35
  1                    CONDUIT    953.62     0  02:35      3.28    0.33    0.40
  2                    CONDUIT    194.96     0  02:23      5.81    0.47    0.48
  3                    CONDUIT    511.13     0  03:00      9.84    0.81    0.69
  4                    CONDUIT      0.00     0  00:00      0.00    0.00    0.00
  CC-Pump-1            PUMP       200.00     0  02:20              1.00
  CC-Pump-2            PUMP       200.00     0  02:20              1.00
  JK-Pump-1            PUMP       300.00     0  00:00              1.00
  JK-Pump-2            PUMP       300.00     0  02:21              1.00
  XR-Pump-1            PUMP        95.00     0  00:00              1.00
  XR-Pump-2            PUMP        95.00     0  00:00              1.00
  XR-Pump-3            PUMP        95.00     0  00:00              1.00
  XR-Pump-4            PUMP        95.00     0  00:00              1.00
  
  
  ***************************
  Flow Classification Summary
  ***************************
  
  -------------------------------------------------------------------------------------
                      Adjusted    ---------- Fraction of Time in Flow Class ---------- 
                       /Actual         Up    Down  Sub   Sup   Up    Down  Norm  Inlet 
  Conduit               Length    Dry  Dry   Dry   Crit  Crit  Crit  Crit  Ltd   Ctrl  
  -------------------------------------------------------------------------------------
  WS02003066WSF200        1.00   0.05  0.01  0.00  0.00  0.94  0.00  0.00  0.67  0.00
  WS02006287WS02006284    1.00   0.04  0.01  0.00  0.65  0.29  0.00  0.00  0.76  0.00
  WS02006284WS02006280    1.00   0.05  0.00  0.00  0.00  0.00  0.00  0.95  0.00  0.00
  WS02006280WS02006229    1.00   0.05  0.00  0.00  0.00  0.00  0.00  0.95  0.00  0.00
  WS02006229WS02006228    1.00   0.00  0.00  0.00  0.99  0.00  0.00  0.01  0.00  0.00
  WS02006256WS02006235    1.00   0.00  0.00  0.00  1.00  0.00  0.00  0.00  0.00  0.00
  WS02006253WS02006251    1.00   0.03  0.01  0.00  0.96  0.00  0.00  0.00  0.00  0.00
  WS02006252WS02006251    1.00   0.08  0.00  0.00  0.00  0.00  0.92  0.00  0.00  0.00
  WS02006251WS02006249    1.00   0.00  0.00  0.00  1.00  0.00  0.00  0.00  0.28  0.00
  WS02006249WS02006248    1.00   0.00  0.02  0.00  0.90  0.00  0.08  0.00  0.00  0.00
  WS02006248WS02006247    1.00   0.02  0.00  0.00  0.97  0.00  0.00  0.00  0.19  0.00
  WS02006247WS02006245    1.00   0.02  0.00  0.00  0.97  0.00  0.00  0.00  0.00  0.00
  WS02006245WS02006243    1.00   0.01  0.00  0.00  0.93  0.00  0.00  0.05  0.03  0.00
  WS02006243WS02006242    1.00   0.01  0.00  0.00  0.99  0.00  0.00  0.00  0.27  0.00
  WS02006242WS02006240    1.00   0.00  0.00  0.00  1.00  0.00  0.00  0.00  0.00  0.00
  WS02006240WS02006239    1.00   0.00  0.00  0.00  0.96  0.00  0.00  0.04  0.01  0.00
  WS02006239WS02006238    1.00   0.00  0.00  0.00  1.00  0.00  0.00  0.00  0.01  0.00
  WS02006238WS02006235    1.00   0.00  0.00  0.00  1.00  0.00  0.00  0.00  0.00  0.00
  WS02006235WS02006234    1.00   0.00  0.00  0.00  0.95  0.00  0.05  0.00  0.00  0.00
  WS02006234WS02006232    1.00   0.00  0.00  0.00  1.00  0.00  0.00  0.00  0.03  0.00
  WS02006232WS02006231    1.00   0.00  0.00  0.00  0.99  0.00  0.00  0.00  0.00  0.00
  WS02006231WS02006230    1.00   0.00  0.00  0.00  0.55  0.00  0.45  0.00  0.00  0.00
  WS02006230WS02006229    1.00   0.00  0.00  0.00  0.98  0.00  0.00  0.02  0.01  0.00
  WS02006228WS02006109    1.00   0.00  0.00  0.00  1.00  0.00  0.00  0.00  0.00  0.00
  WS02006116WS02004401    1.00   0.03  0.00  0.00  0.97  0.00  0.00  0.00  0.00  0.00
  WS02006115WS02006116    1.00   0.03  0.00  0.00  0.97  0.00  0.00  0.01  0.00  0.00
  WS02006113WS02006111    1.00   0.02  0.00  0.00  0.00  0.98  0.00  0.00  0.12  0.00
  WS02006112WS02006115    1.00   0.02  0.00  0.00  0.97  0.00  0.00  0.00  0.00  0.00
  WS02006111WS02006112    1.00   0.02  0.00  0.00  0.97  0.00  0.00  0.00  0.98  0.00
  WS02006110WS02006113    1.00   0.01  0.01  0.00  0.98  0.00  0.00  0.00  0.00  0.00
  WS02006109WS02006110    1.00   0.00  0.01  0.00  0.98  0.00  0.01  0.00  0.00  0.00
  WS02004411WS02004412    1.00   0.04  0.00  0.00  0.96  0.00  0.00  0.00  0.00  0.00
  WS02004401WS02004402    1.00   0.03  0.00  0.00  0.97  0.00  0.00  0.00  0.00  0.00
  WS02004413WS02003067    1.00   0.04  0.01  0.00  0.00  0.00  0.94  0.00  0.00  0.00
  WS02004412WS02004413    1.00   0.04  0.00  0.00  0.96  0.00  0.00  0.00  0.03  0.00
  WS02004410WS02004411    1.00   0.04  0.00  0.00  0.96  0.00  0.00  0.00  0.04  0.00
  WS02004409WS02004410    1.00   0.04  0.00  0.00  0.96  0.00  0.00  0.00  0.03  0.00
  WS02004407WS02004409    1.00   0.04  0.00  0.00  0.96  0.00  0.00  0.00  0.89  0.00
  WS02004406WS02004407    1.00   0.00  0.04  0.00  0.96  0.00  0.00  0.00  0.00  0.00
  WS02004405WS02004406    1.00   0.00  0.00  0.00  1.00  0.00  0.00  0.00  0.01  0.00
  WS02004404WS02004405    1.00   0.00  0.00  0.00  1.00  0.00  0.00  0.00  0.00  0.00
  WS02004403WS02004404    1.00   0.00  0.03  0.00  0.97  0.00  0.00  0.00  0.01  0.00
  WS02004402WS02004403    1.00   0.03  0.00  0.00  0.97  0.00  0.00  0.00  0.00  0.00
  WS02004139WS02001211    1.00   0.00  0.00  0.00  1.00  0.00  0.00  0.00  0.00  0.00
  WS02004138WS02004139    1.00   0.00  0.00  0.00  0.99  0.01  0.00  0.00  1.00  0.00
  WS02003067WS02003066    1.00   0.06  0.00  0.00  0.94  0.00  0.00  0.00  0.00  0.00
  WS02001213WS02003059    1.00   0.00  0.00  0.00  0.99  0.00  0.00  0.00  0.00  0.00
  WS02001212WS02001213    1.00   0.00  0.00  0.00  0.82  0.00  0.17  0.00  0.00  0.00
  WS02001211WS02001212    1.00   0.00  0.00  0.00  1.00  0.00  0.00  0.00  0.00  0.00
  WS02003072WS02003073    1.00   0.00  0.00  0.00  0.00  0.00  0.00  1.00  0.00  0.00
  WS02003069WS02003072    1.00   0.00  0.00  0.00  0.99  0.01  0.00  0.00  0.27  0.00
  WS02003060WS02003069    1.00   0.00  0.00  0.00  0.98  0.02  0.00  0.00  0.14  0.00
  WS02003059WS02003060    1.00   0.00  0.00  0.00  1.00  0.00  0.00  0.00  0.01  0.00
  HS02004901HS02004770    1.00   0.04  0.00  0.00  0.95  0.00  0.00  0.00  0.02  0.00
  HS02004876HS02004881    1.00   0.02  0.00  0.00  0.98  0.00  0.00  0.00  0.00  0.00
  HS02004870HS02004876    1.00   0.01  0.00  0.00  0.99  0.00  0.00  0.00  0.95  0.00
  HS02004842HS02004848    1.00   0.00  0.05  0.00  0.95  0.00  0.00  0.00  0.67  0.00
  HS02004837HS02004842    1.00   0.00  0.00  0.00  0.99  0.01  0.00  0.00  0.11  0.00
  HS02004830HS02004837    1.00   0.00  0.00  0.00  1.00  0.00  0.00  0.00  0.99  0.00
  HS02004824HS02004830    1.00   0.00  0.00  0.00  1.00  0.00  0.00  0.00  0.00  0.00
  HS02004817HS02004824    1.00   0.00  0.00  0.00  1.00  0.00  0.00  0.00  1.00  0.00
  HS02004770HS02004777    1.00   0.00  0.04  0.00  0.95  0.00  0.00  0.00  0.07  0.00
  HS02004799HS02004480    1.00   0.00  0.03  0.00  0.94  0.00  0.03  0.00  0.00  0.00
  HS02004792HS02004799    1.00   0.00  0.00  0.00  0.99  0.01  0.00  0.00  0.98  0.00
  HS02004788HS02004792    1.00   0.00  0.00  0.00  0.99  0.01  0.00  0.00  0.98  0.00
  HS02004785HS02004788    1.00   0.00  0.00  0.00  1.00  0.00  0.00  0.00  0.00  0.00
  HS02004777HS02004785    1.00   0.00  0.00  0.00  1.00  0.00  0.00  0.00  0.20  0.00
  HS02004480HS02004478    1.00   0.05  0.00  0.00  0.70  0.00  0.00  0.25  0.00  0.00
  HS02004479HS02004480    1.00   0.03  0.00  0.00  0.97  0.00  0.00  0.00  0.15  0.00
  HS02004862HS02004870    1.00   0.00  0.00  0.00  1.00  0.00  0.00  0.00  0.06  0.00
  HS02004848HS02004852    1.00   0.05  0.00  0.00  0.95  0.00  0.00  0.00  0.71  0.00
  HS02004856HS02004862    1.00   0.00  0.07  0.00  0.93  0.00  0.00  0.00  0.75  0.00
  HS02004852HS02004856    1.00   0.04  0.01  0.00  0.95  0.00  0.00  0.00  0.83  0.00
  HS02004802HS02004478    1.00   0.05  0.00  0.00  0.95  0.00  0.00  0.00  0.01  0.00
  HS02004478WS02006287    1.00   0.05  0.00  0.00  0.83  0.11  0.00  0.00  0.74  0.00
  HS02004817HS02004807    1.00   0.00  0.05  0.00  0.95  0.00  0.00  0.00  0.00  0.00
  HS02004807HS02004802    1.00   0.05  0.00  0.00  0.95  0.00  0.00  0.00  0.01  0.00
  YS02001759YS02001757    1.00   0.00  0.00  0.00  1.00  0.00  0.00  0.00  0.17  0.00
  YS02001762YS02001759    1.00   0.00  0.00  0.00  1.00  0.00  0.00  0.00  0.04  0.00
  YS02001765YS02001762    1.00   0.00  0.00  0.00  1.00  0.00  0.00  0.00  0.21  0.00
  YS02001770YS02001767    1.00   0.00  0.00  0.00  1.00  0.00  0.00  0.00  0.00  0.00
  YS02001774YS02001770    1.00   0.00  0.05  0.00  0.95  0.00  0.00  0.00  0.06  0.00
  YS02001779YS02001774    1.00   0.00  0.00  0.00  1.00  0.00  0.00  0.00  0.26  0.00
  YS02001649YS02001757    1.00   0.00  0.00  0.00  1.00  0.00  0.00  0.00  0.19  0.00
  YS02001767YS02001765    1.00   0.00  0.00  0.00  1.00  0.00  0.00  0.00  0.01  0.00
  YS02006561YS02001783    1.00   0.07  0.00  0.00  0.08  0.85  0.00  0.00  0.62  0.00
  YS02001783YS02001784    1.00   0.00  0.07  0.00  0.93  0.00  0.00  0.00  0.00  0.00
  YS02001784YS02001785    1.00   0.00  0.00  0.00  1.00  0.00  0.00  0.00  0.25  0.00
  YS02001788YS02001790    1.00   0.00  0.00  0.00  0.18  0.82  0.00  0.00  0.71  0.00
  YS02001790YS02001791    1.00   0.00  0.00  0.00  0.13  0.87  0.00  0.00  0.55  0.00
  YS02001791YS02001793    1.00   0.00  0.00  0.00  0.13  0.87  0.00  0.00  0.01  0.00
  YS02001910YS02001907    1.00   0.00  0.00  0.00  0.97  0.00  0.00  0.03  0.13  0.00
  YS02001786YS02001788    1.00   0.00  0.00  0.00  0.17  0.83  0.00  0.00  0.00  0.00
  YS02001915YS02001910    1.00   0.00  0.00  0.00  0.99  0.01  0.00  0.00  0.23  0.00
  YS02001918YS02001915    1.00   0.00  0.01  0.00  0.98  0.01  0.00  0.00  0.70  0.00
  YS02001923YS02001920    1.00   0.00  0.00  0.00  1.00  0.00  0.00  0.00  1.00  0.00
  YS02001926YS02001923    1.00   0.00  0.03  0.00  0.00  0.00  0.97  0.00  0.00  0.00
  YS02001929YS02001926    1.00   0.00  0.04  0.00  0.96  0.00  0.00  0.00  0.87  0.00
  YS02001920YS02001918    1.00   0.00  0.01  0.00  0.99  0.00  0.00  0.00  0.00  0.00
  YS02001629YS02163301    1.00   0.06  0.00  0.00  0.94  0.00  0.00  0.00  0.00  0.00
  YS02001619YS02001622    1.00   0.04  0.00  0.00  0.96  0.00  0.00  0.00  0.00  0.00
  YS02001622YS02001625    1.00   0.05  0.00  0.00  0.95  0.00  0.00  0.00  0.12  0.00
  YS02001625YS02001629    1.00   0.05  0.02  0.00  0.92  0.00  0.01  0.00  0.00  0.00
  YS02163301YS02001633    1.00   0.00  0.06  0.00  0.94  0.00  0.00  0.00  0.00  0.00
  YS02163601YS02164001    1.00   0.00  0.04  0.00  0.96  0.00  0.00  0.00  0.00  0.00
  YS02164001YS02001641    1.00   0.01  0.03  0.00  0.96  0.00  0.00  0.00  0.07  0.00
  YS02001641YS02001644    1.00   0.00  0.01  0.00  0.99  0.00  0.00  0.00  0.00  0.00
  YS02001647YS02001649    1.00   0.00  0.07  0.00  0.93  0.00  0.00  0.00  0.01  0.00
  YS02006553YS02006556    1.00   0.01  0.00  0.00  0.99  0.00  0.00  0.00  0.03  0.00
  YS02006556YS02006558    1.00   0.00  0.00  0.00  1.00  0.00  0.00  0.00  0.00  0.00
  YSB6556YSB1171          1.00   0.03  0.01  0.00  0.96  0.00  0.00  0.00  0.00  0.00
  YS02001907YS02006553    1.00   0.00  0.02  0.00  0.97  0.00  0.00  0.00  0.00  0.00
  YS02006558YS02006561    1.00   0.07  0.00  0.00  0.00  0.93  0.00  0.00  0.62  0.00
  YS02001633YS02163601    1.00   0.00  0.01  0.00  0.99  0.00  0.00  0.00  0.19  0.00
  YS02001644YS02001647    1.00   0.00  0.07  0.00  0.93  0.00  0.00  0.00  0.00  0.00
  YS02001745YS02001748    1.00   0.00  0.00  0.00  0.88  0.01  0.00  0.11  0.16  0.00
  YS02001748YS02001751    1.00   0.00  0.00  0.00  0.98  0.02  0.00  0.00  0.23  0.00
  YS02001751YS02001754    1.00   0.00  0.00  0.00  0.93  0.00  0.00  0.07  0.01  0.00
  YS02001754YS02001757    1.00   0.00  0.00  0.00  0.99  0.01  0.00  0.00  0.26  0.00
  YS02001882YS02001884    1.00   0.06  0.00  0.00  0.94  0.00  0.00  0.00  0.00  0.00
  YS02001884YS02001887    1.00   0.03  0.01  0.00  0.96  0.00  0.00  0.00  0.00  0.00
  YS02001890YS02001895    1.00   0.00  0.06  0.00  0.94  0.00  0.00  0.00  0.00  0.00
  YS02001895YS02001898    1.00   0.06  0.00  0.00  0.93  0.00  0.01  0.00  0.00  0.00
  YS02001898YS02001901    1.00   0.06  0.00  0.00  0.94  0.00  0.00  0.00  0.02  0.00
  YS02001901YS02001904    1.00   0.06  0.00  0.00  0.94  0.00  0.00  0.00  0.00  0.00
  YS02001904YS02001907    1.00   0.00  0.06  0.00  0.94  0.00  0.00  0.00  0.00  0.00
  YS02001887YS02001890    1.00   0.00  0.00  0.00  0.97  0.00  0.02  0.00  0.00  0.00
  YS02001652YS02001649    1.00   0.00  0.00  0.00  1.00  0.00  0.00  0.00  0.25  0.00
  YS02001655YS02001652    1.00   0.00  0.00  0.00  0.93  0.00  0.00  0.07  0.01  0.00
  YS02001658YS02001655    1.00   0.00  0.05  0.00  0.92  0.03  0.00  0.00  0.09  0.00
  YS02001661YS02001658    1.00   0.05  0.00  0.00  0.87  0.07  0.00  0.00  0.17  0.00
  YS02001664YS02001661    1.00   0.04  0.00  0.00  0.73  0.23  0.00  0.00  0.86  0.00
  YSB1154YSB6556          1.00   0.04  0.00  0.00  0.96  0.00  0.00  0.00  0.02  0.00
  YSB1174YSB1171          1.00   0.03  0.01  0.00  0.96  0.00  0.00  0.00  0.00  0.00
  YSB1171HS02004479       1.00   0.03  0.00  0.00  0.97  0.00  0.00  0.00  0.13  0.00
  HS02004881HS02006253    1.00   0.03  0.00  0.00  0.83  0.00  0.00  0.13  0.60  0.00
  YS02001793JiankangQianchi    1.00   0.00  0.00  0.00  0.43  0.57  0.00  0.00  0.29  0.00
  YS02001757CaochengTiaoxuchi    1.00   0.00  0.08  0.00  0.92  0.00  0.00  0.00  0.00  0.00
  WSF200WS02003060        1.00   0.00  0.05  0.00  0.81  0.14  0.00  0.00  0.47  0.00
  1                       1.00   0.00  0.00  0.00  0.00  1.00  0.00  0.00  0.34  0.00
  2                       1.00   0.68  0.00  0.00  0.00  0.32  0.00  0.00  0.10  0.00
  3                       1.00   0.19  0.00  0.00  0.00  0.81  0.00  0.00  0.32  0.00
  4                       1.00   1.00  0.00  0.00  0.00  0.00  0.00  0.00  0.00  0.00
  
  
  *************************
  Conduit Surcharge Summary
  *************************
  
  ----------------------------------------------------------------------------
                                                           Hours        Hours 
                         --------- Hours Full --------   Above Full   Capacity
  Conduit                Both Ends  Upstream  Dnstream   Normal Flow   Limited
  ----------------------------------------------------------------------------
  WS02006229WS02006228        1.49      1.71      1.49      4.11         1.49
  WS02006256WS02006235        5.54      5.55      7.45      3.05         0.01
  WS02006253WS02006251        0.01      0.01      0.06      0.01         0.01
  WS02006252WS02006251        0.69      0.69      1.63      1.39         0.01
  WS02006251WS02006249        0.01      0.01      0.01      0.76         0.01
  WS02006249WS02006248        0.01      0.01      0.01      4.47         0.01
  WS02006248WS02006247        0.01      0.01      0.01      0.01         0.01
  WS02006247WS02006245        0.01      0.03      0.01      4.77         0.01
  WS02006245WS02006243        0.01      0.02      0.15      0.03         0.01
  WS02006243WS02006242        0.19      0.19      0.82      0.01         0.01
  WS02006242WS02006240        0.39      0.39      1.25      1.71         0.01
  WS02006240WS02006239        0.45      0.45      0.55      0.01         0.01
  WS02006239WS02006238        1.17      1.17      1.36      0.01         0.01
  WS02006238WS02006235        1.16      1.16      1.61      0.01         0.01
  WS02006235WS02006234        0.46      0.46      0.98      5.54         0.01
  WS02006234WS02006232        0.63      0.63      1.68      0.01         0.01
  WS02006232WS02006231        0.17      0.17      1.68      0.01         0.01
  WS02006231WS02006230        0.02      0.02      0.21      5.58         0.01
  WS02006230WS02006229        2.46      3.79      2.46      5.75         2.45
  WS02006228WS02006109        1.59      2.01      1.59      4.82         1.59
  WS02006112WS02006115        0.01      0.01      0.64      0.01         0.01
  WS02006111WS02006112        0.01      0.01      4.23      0.01         0.01
  WS02006110WS02006113        0.01      0.01      1.85      0.01         0.01
  WS02006109WS02006110        0.32      0.32      2.01      0.32         0.01
  WS02004405WS02004406        0.01      0.01      0.01      0.40         0.01
  WS02004404WS02004405        0.01      0.01      0.01      5.53         0.01
  WS02003072WS02003073        0.01      0.01      0.01      5.05         0.01
  YS02001759YS02001757        5.38      5.38      5.46      0.01         0.01
  YS02001762YS02001759        5.35      5.35      5.38      0.01         0.01
  YS02001765YS02001762        5.31      5.31      5.35      0.01         0.01
  YS02001770YS02001767        5.15      5.16      5.16      0.01         0.75
  YS02001774YS02001770        5.11      5.11      5.34      0.01         0.01
  YS02001779YS02001774        3.95      3.95      5.34      0.01         0.01
  YS02001649YS02001757        5.36      5.36      5.46      0.01         0.01
  YS02001767YS02001765        5.16      5.16      5.31      0.01         0.01
  YS02001784YS02001785        0.01      0.01      0.01      0.42         0.01
  YS02001788YS02001790        0.01      0.01      0.48      0.01         0.01
  YS02001790YS02001791        0.48      0.48      0.54      0.01         0.01
  YS02001791YS02001793        0.54      0.54      0.65      0.01         0.01
  YS02001629YS02163301        5.11      5.11      5.14      0.01         0.01
  YS02001622YS02001625        0.01      0.01      4.98      0.01         0.01
  YS02001625YS02001629        0.01      0.01      4.98      0.01         0.01
  YS02163301YS02001633        5.14      5.14      5.32      0.01         0.01
  YS02163601YS02164001        5.31      5.31      5.36      0.01         0.01
  YS02164001YS02001641        5.31      5.31      5.33      0.01         0.01
  YS02001641YS02001644        5.33      5.33      5.33      0.01         0.52
  YS02001647YS02001649        4.82      4.82      5.36      0.01         0.01
  YS02001907YS02006553        0.45      0.45      0.78      0.01         0.01
  YS02006558YS02006561        0.01      0.01      0.01      0.12         0.01
  YS02001633YS02163601        5.28      5.28      5.36      0.01         0.01
  YS02001644YS02001647        4.82      4.82      5.33      0.01         0.01
  YS02001748YS02001751        0.01      0.01      0.42      0.01         0.01
  YS02001751YS02001754        0.42      0.42      4.11      0.01         0.01
  YS02001754YS02001757        4.73      4.73      5.46      0.01         0.01
  YS02001652YS02001649        4.94      4.94      5.36      0.01         0.01
  YS02001655YS02001652        1.93      1.93      4.42      0.01         0.01
  YS02001658YS02001655        0.01      0.01      1.94      0.01         0.01
  YS02001793JiankangQianchi        0.62      0.62      1.72      0.01         0.01
  YS02001757CaochengTiaoxuchi        0.01      0.01      5.46      0.01         0.01
  
  
  ***************
  Pumping Summary
  ***************
  
  ---------------------------------------------------------------------------------------------------------
                                                  Min       Avg       Max     Total     Power    % Time Off
                        Percent   Number of      Flow      Flow      Flow    Volume     Usage    Pump Curve
  Pump                 Utilized   Start-Ups       LPS       LPS       LPS  10^6 ltr     Kw-hr    Low   High
  ---------------------------------------------------------------------------------------------------------
  CC-Pump-1               54.58           6      0.00    144.62    200.00     2.145      6.31    0.0   18.6
  CC-Pump-2               56.71           5      0.00    139.83    200.00     2.205      6.08    0.0   14.2
  JK-Pump-1               89.36           4      0.00    160.46    300.00     2.998     45.37    0.0    0.0
  JK-Pump-2               68.07          10      0.00    132.90    300.00     1.863     32.38    0.0    0.0
  XR-Pump-1               93.61           6      0.00     75.95     95.00     1.995     20.28    0.0    0.0
  XR-Pump-2               87.22           6      0.00     79.79     95.00     1.824     17.37    0.0    0.0
  XR-Pump-3               78.71           9      0.00     71.51     95.00     1.596     16.95    0.0    0.0
  XR-Pump-4               87.23           6      0.00     74.76     95.00     1.824     17.65    0.0    0.0
  

  Analysis begun on:  Fri Dec 24 18:16:42 2021
  Analysis ended on:  Fri Dec 24 18:16:46 2021
  Total elapsed time: 00:00:04