
  EPA STORM WATER MANAGEMENT MODEL - VERSION 5.1 (Build 5.3.0.dev0)
  --------------------------------------------------------------

  WARNING 04: minimum elevation drop used for Conduit WS02004404WS02004405
  WARNING 03: negative offset ignored for Link YS02001904YS02001907
  
  *********************************************************
  NOTE: The summary statistics displayed in this report are
  based on results found at every computational time step,  
  not just on results from each reporting time step.
  *********************************************************
  
  ****************
  Analysis Options
  ****************
  Flow Units ............... LPS
  Process Models:
    Rainfall/Runoff ........ YES
    RDII ................... NO
    Snowmelt ............... NO
    Groundwater ............ NO
    Flow Routing ........... YES
    Ponding Allowed ........ NO
    Water Quality .......... NO
  Infiltration Method ...... HORTON
  Flow Routing Method ...... DYNWAVE
  Surcharge Method ......... EXTRAN
  Starting Date ............ 08/28/2015 08:00:00
  Ending Date .............. 08/28/2015 15:50:00
  Antecedent Dry Days ...... 8.0
  Report Time Step ......... 00:01:00
  Wet Time Step ............ 00:01:00
  Dry Time Step ............ 00:01:00
  Routing Time Step ........ 5.00 sec
  Variable Time Step ....... YES
  Maximum Trials ........... 8
  Number of Threads ........ 4
  Head Tolerance ........... 0.001500 m
  
  
  **************************        Volume         Depth
  Runoff Quantity Continuity     hectare-m            mm
  **************************     ---------       -------
  Total Precipitation ......         2.141         4.687
  Evaporation Loss .........         0.000         0.000
  Infiltration Loss ........         0.532         1.164
  Surface Runoff ...........         0.782         1.712
  Final Storage ............         0.828         1.812
  Continuity Error (%) .....        -0.018
  
  
  **************************        Volume        Volume
  Flow Routing Continuity        hectare-m      10^6 ltr
  **************************     ---------     ---------
  Dry Weather Inflow .......         0.616         6.165
  Wet Weather Inflow .......         0.781         7.812
  Groundwater Inflow .......         0.000         0.000
  RDII Inflow ..............         0.000         0.000
  External Inflow ..........         0.102         1.024
  External Outflow .........         1.551        15.514
  Flooding Loss ............         0.000         0.000
  Evaporation Loss .........         0.000         0.000
  Exfiltration Loss ........         0.000         0.000
  Initial Stored Volume ....         0.076         0.761
  Final Stored Volume ......         0.139         1.395
  Continuity Error (%) .....        -7.280
  
  
  *************************
  Highest Continuity Errors
  *************************
  Node HS02004842 (33.88%)
  Node JK-storage (-29.27%)
  Node YS02001884 (28.07%)
  Node YS02001774 (11.70%)
  Node YSB1171 (9.19%)
  
  
  ***************************
  Time-Step Critical Elements
  ***************************
  Link WS02006252WS02006251 (65.96%)
  Link 3 (21.89%)
  Link WS02006238WS02006235 (5.00%)
  Link WS02006280WS02006229 (2.58%)
  
  
  ********************************
  Highest Flow Instability Indexes
  ********************************
  Link WS02006113WS02006111 (42)
  Link WS02006111WS02006112 (24)
  Link YS02001754YS02001757 (3)
  Link YS02001751YS02001754 (3)
  Link YS02001762YS02001759 (3)
  
  
  *************************
  Routing Time Step Summary
  *************************
  Minimum Time Step           :     0.50 sec
  Average Time Step           :     0.93 sec
  Maximum Time Step           :     5.00 sec
  Percent in Steady State     :    -0.00
  Average Iterations per Step :     2.03
  Percent Not Converging      :     0.14
  
  
  ***************************
  Subcatchment Runoff Summary
  ***************************
  
  ------------------------------------------------------------------------------------------------------------------------------
                            Total      Total      Total      Total     Imperv       Perv      Total       Total     Peak  Runoff
                           Precip      Runon       Evap      Infil     Runoff     Runoff     Runoff      Runoff   Runoff   Coeff
  Subcatchment                 mm         mm         mm         mm         mm         mm         mm    10^6 ltr      LPS
  ------------------------------------------------------------------------------------------------------------------------------
  sub0                       4.69       0.00       0.00       0.33       3.09       0.00       3.09        0.00     1.10   0.660
  sub1                       4.69       0.00       0.00       0.52       2.92       0.00       2.92        0.02     5.42   0.623
  sub2                       4.69       0.00       0.00       1.73       2.05       0.00       2.05        0.02     4.73   0.437
  sub3                       4.69       0.00       0.00       1.73       2.02       0.00       2.02        0.05     9.56   0.430
  sub4                       4.69       0.00       0.00       0.52       2.79       0.00       2.79        0.06    10.55   0.595
  sub5                       4.69       0.00       0.00       0.33       3.05       0.00       3.05        0.03     9.64   0.651
  sub7                       4.69       0.00       0.00       0.42       3.01       0.00       3.01        0.01     3.49   0.642
  sub8                       4.69       0.00       0.00       0.42       3.00       0.00       3.00        0.02     6.09   0.641
  sub9                       4.69       0.00       0.00       0.42       3.00       0.00       3.00        0.01     4.50   0.640
  sub10                      4.69       0.00       0.00       0.37       3.02       0.00       3.02        0.03     9.66   0.645
  sub11                      4.69       0.00       0.00       0.37       3.04       0.00       3.04        0.04    11.50   0.648
  sub12                      4.69       0.00       0.00       0.61       2.89       0.00       2.89        0.03     9.98   0.616
  sub14                      4.69       0.00       0.00       0.42       3.00       0.00       3.00        0.03     8.79   0.640
  sub15                      4.69       0.00       0.00       1.41       2.30       0.00       2.30        0.04    11.89   0.492
  sub16                      4.69       0.00       0.00       1.55       2.22       0.00       2.22        0.02     8.71   0.474
  sub17                      4.69       0.00       0.00       1.50       2.25       0.00       2.25        0.02     7.00   0.481
  sub22                      4.69       0.00       0.00       2.02       1.88       0.00       1.88        0.12    39.41   0.402
  sub23                      4.69       0.00       0.00       1.73       2.08       0.00       2.08        0.10    33.66   0.445
  sub60                      4.69       0.00       0.00       0.56       1.88       0.00       1.88        0.57    48.82   0.401
  sub61                      4.69       0.00       0.00       0.80       2.05       0.00       2.05        0.63    62.63   0.438
  sub62                      4.69       0.00       0.00       0.37       2.19       0.00       2.19        0.67    63.58   0.466
  sub63                      4.69       0.00       0.00       1.36       1.84       0.00       1.84        0.56    58.99   0.393
  sub64                      4.69       0.00       0.00       0.70       1.79       0.00       1.79        0.55    46.30   0.383
  sub65                      4.69       0.00       0.00       0.61       1.81       0.00       1.81        0.56    46.92   0.387
  sub66                      4.69       0.00       0.00       1.36       1.57       0.00       1.57        0.48    42.72   0.336
  sub67                      4.69       0.00       0.00       0.37       2.45       0.00       2.45        0.76    83.39   0.522
  sub68                      4.69       0.00       0.00       0.66       2.19       0.00       2.19        0.67    69.65   0.468
  sub69                      4.69       0.00       0.00       0.70       2.41       0.00       2.41        0.56    70.96   0.515
  sub70                      4.69       2.46       0.00       2.43       2.84       0.00       2.84        0.65    52.78   0.397
  sub71                      4.69       0.00       0.00       0.37       2.08       0.00       2.08        0.49    44.02   0.443
  sub72                      4.69       0.00       0.00       0.33       1.40       0.00       1.40        0.29    20.16   0.299
  sub73                      4.69       2.76       0.00       2.53       2.80       0.00       2.80        0.66    44.95   0.376
  sub74                      4.69       0.00       0.00       3.52       0.73       0.00       0.73        0.29    39.98   0.156
  
  
  ******************
  Node Depth Summary
  ******************
  
  ---------------------------------------------------------------------------------
                                 Average  Maximum  Maximum  Time of Max    Reported
                                   Depth    Depth      HGL   Occurrence   Max Depth
  Node                 Type       Meters   Meters   Meters  days hr:min      Meters
  ---------------------------------------------------------------------------------
  WS02001211           JUNCTION     0.68     0.77     5.61     0  06:49        0.77
  WS02001212           JUNCTION     0.40     0.48     5.54     0  04:41        0.48
  WS02001213           JUNCTION     0.63     0.72     5.48     0  04:41        0.72
  WS02003069           JUNCTION     0.44     0.52     5.10     0  04:43        0.52
  WS02003072           JUNCTION     0.51     0.58     4.95     0  04:44        0.58
  WS02003073           JUNCTION     0.30     0.35     4.42     0  04:45        0.35
  WS02003060           JUNCTION     0.39     0.46     5.39     0  04:42        0.46
  WS02003066           JUNCTION     0.23     0.27     5.83     0  03:21        0.27
  WS02003059           JUNCTION     0.69     0.77     5.45     0  04:42        0.77
  WS02003067           JUNCTION     0.56     0.66     5.98     0  03:20        0.66
  WS02004401           JUNCTION     0.65     0.77     6.77     0  03:17        0.77
  WS02004402           JUNCTION     0.68     0.80     6.76     0  03:18        0.80
  WS02004403           JUNCTION     0.71     0.82     6.75     0  03:17        0.82
  WS02004404           JUNCTION     0.78     0.90     6.75     0  03:17        0.90
  WS02004406           JUNCTION     0.79     0.90     6.73     0  03:17        0.90
  WS02004409           JUNCTION     0.47     0.59     6.36     0  03:19        0.59
  WS02004410           JUNCTION     0.49     0.61     6.33     0  03:20        0.61
  WS02004411           JUNCTION     0.51     0.62     6.30     0  03:20        0.62
  WS02004412           JUNCTION     0.53     0.64     6.28     0  03:20        0.64
  WS02004413           JUNCTION     0.68     0.80     6.27     0  03:20        0.80
  WS02004405           JUNCTION     0.78     0.89     6.74     0  03:17        0.89
  WS02006109           JUNCTION     0.73     0.87     7.48     0  03:13        0.87
  WS02006110           JUNCTION     0.73     0.85     7.43     0  03:13        0.85
  WS02006111           JUNCTION     0.21     0.26     6.97     0  03:13        0.26
  WS02006112           JUNCTION     0.82     0.95     6.84     0  03:17        0.95
  WS02006113           JUNCTION     0.33     0.41     7.30     0  03:13        0.41
  WS02006115           JUNCTION     0.54     0.67     6.80     0  03:17        0.67
  WS02006116           JUNCTION     0.62     0.75     6.79     0  03:17        0.75
  WS02006230           JUNCTION     0.69     0.89     7.63     0  03:12        0.89
  WS02006231           JUNCTION     0.46     0.60     7.73     0  03:12        0.60
  WS02006232           JUNCTION     0.60     0.75     7.79     0  03:12        0.75
  WS02006234           JUNCTION     0.52     0.70     7.86     0  03:12        0.70
  WS02006235           JUNCTION     0.55     0.74     7.90     0  03:12        0.74
  WS02006238           JUNCTION     0.57     0.76     7.91     0  03:12        0.76
  WS02006240           JUNCTION     0.47     0.69     7.99     0  03:12        0.69
  WS02006242           JUNCTION     0.53     0.76     8.03     0  03:12        0.76
  WS02006243           JUNCTION     0.41     0.65     8.07     0  03:11        0.65
  WS02006245           JUNCTION     0.40     0.62     8.11     0  03:12        0.62
  WS02006247           JUNCTION     0.42     0.63     8.13     0  03:11        0.63
  WS02006248           JUNCTION     0.36     0.57     8.16     0  04:48        0.57
  WS02006249           JUNCTION     0.40     0.59     8.19     0  04:49        0.59
  WS02006239           JUNCTION     0.53     0.74     7.95     0  03:12        0.74
  WS02006251           JUNCTION     0.39     0.61     8.28     0  04:49        0.61
  WS02006252           JUNCTION     0.35     0.58     8.83     0  04:20        0.58
  WS02006253           JUNCTION     0.41     0.64     8.28     0  04:48        0.64
  WS02006256           JUNCTION     0.97     1.19     8.12     0  00:20        1.18
  WS02004138           JUNCTION     0.16     0.19     7.44     0  06:42        0.19
  WS02004407           JUNCTION     0.21     0.27     6.58     0  03:17        0.27
  WS02006228           JUNCTION     0.72     0.88     7.53     0  03:12        0.88
  WS02006229           JUNCTION     0.69     0.87     7.56     0  03:12        0.87
  WS02006280           JUNCTION     0.05     0.12     8.40     0  02:20        0.12
  WS02006284           JUNCTION     0.34     0.45     8.85     0  02:20        0.45
  WS02006287           JUNCTION     0.07     0.18     9.14     0  02:20        0.18
  WSF200               JUNCTION     0.21     0.27     5.51     0  03:21        0.27
  HS02004901           JUNCTION     0.10     0.20    10.03     0  02:18        0.20
  HS02004881           JUNCTION     0.00     0.02     9.05     0  02:19        0.02
  HS02004876           JUNCTION     0.03     0.09     9.12     0  02:18        0.09
  HS02004870           JUNCTION     0.01     0.03     9.32     0  02:19        0.03
  HS02004862           JUNCTION     0.01     0.04     9.42     0  02:20        0.04
  HS02004856           JUNCTION     0.07     0.10     9.52     0  02:19        0.10
  HS02004852           JUNCTION     0.01     0.02     9.53     0  02:20        0.02
  HS02004848           JUNCTION     0.01     0.02     9.62     0  02:17        0.02
  HS02004842           JUNCTION     0.33     0.35     9.62     0  02:18        0.35
  HS02004837           JUNCTION     0.02     0.04     9.62     0  02:18        0.04
  HS02004830           JUNCTION     0.03     0.05     9.52     0  02:18        0.05
  HS02004824           JUNCTION     0.02     0.03     9.44     0  02:21        0.03
  HS02004817           JUNCTION     0.42     0.50     9.35     0  02:20        0.50
  HS02004807           JUNCTION     0.11     0.18     9.35     0  02:20        0.18
  HS02004802           JUNCTION     0.14     0.21     9.34     0  02:20        0.21
  HS02004799           JUNCTION     0.09     0.22     9.43     0  02:18        0.22
  HS02004792           JUNCTION     0.02     0.08     9.60     0  02:17        0.08
  HS02004788           JUNCTION     0.02     0.06     9.96     0  02:19        0.06
  HS02004785           JUNCTION     0.03     0.11    10.01     0  02:19        0.11
  HS02004777           JUNCTION     0.13     0.23    10.03     0  02:18        0.23
  HS02004770           JUNCTION     0.10     0.20    10.03     0  02:18        0.20
  HS02004480           JUNCTION     0.06     0.17     9.41     0  02:19        0.17
  HS02004479           JUNCTION     0.09     0.21     9.41     0  02:18        0.21
  HS02004478           JUNCTION     0.05     0.11     9.33     0  02:20        0.11
  YS02001745           JUNCTION     0.07     0.10     7.61     0  02:57        0.10
  YS02001748           JUNCTION     0.10     0.19     7.27     0  04:20        0.19
  YS02001751           JUNCTION     0.25     0.41     7.29     0  04:21        0.40
  YS02001754           JUNCTION     0.50     0.70     7.31     0  04:14        0.69
  YS02001762           JUNCTION     0.69     0.87     7.27     0  04:19        0.87
  YS02001765           JUNCTION     0.65     0.83     7.28     0  04:13        0.82
  YS02001767           JUNCTION     0.61     0.78     7.27     0  03:02        0.78
  YS02001770           JUNCTION     0.60     0.77     7.26     0  03:03        0.77
  YS02001774           JUNCTION     0.67     0.84     7.26     0  03:03        0.84
  YS02001779           JUNCTION     0.42     0.58     7.27     0  03:01        0.58
  YS02001882           JUNCTION     0.25     0.37     7.08     0  02:51        0.37
  YS02001884           JUNCTION     0.34     0.47     7.08     0  02:51        0.47
  YS02001759           JUNCTION     0.73     0.91     7.27     0  04:17        0.90
  YS02001887           JUNCTION     0.42     0.54     7.08     0  02:51        0.54
  YS02001890           JUNCTION     0.45     0.58     7.08     0  02:51        0.58
  YS02001898           JUNCTION     0.22     0.33     7.07     0  02:53        0.33
  YS02001901           JUNCTION     0.34     0.46     7.07     0  02:52        0.46
  YS02001904           JUNCTION     0.31     0.43     7.06     0  02:52        0.43
  YS02001907           JUNCTION     0.64     0.78     7.06     0  02:52        0.78
  YS02001910           JUNCTION     0.43     0.56     7.06     0  02:52        0.56
  YS02001915           JUNCTION     0.23     0.35     7.06     0  02:51        0.35
  YS02001918           JUNCTION     0.07     0.08     7.15     0  03:03        0.08
  YS02001619           JUNCTION     0.21     0.34     7.27     0  03:04        0.34
  YS02001629           JUNCTION     0.55     0.72     7.27     0  03:03        0.72
  YS02001641           JUNCTION     0.66     0.83     7.27     0  03:04        0.83
  YS02001644           JUNCTION     0.66     0.83     7.27     0  03:02        0.83
  YS02001652           JUNCTION     0.51     0.68     7.27     0  04:16        0.67
  YS02001655           JUNCTION     0.27     0.42     7.27     0  03:03        0.41
  YS02001920           JUNCTION     0.16     0.18     7.19     0  03:03        0.18
  YS02001923           JUNCTION     0.05     0.07     7.33     0  03:02        0.07
  YS02001926           JUNCTION     0.12     0.15     7.59     0  03:01        0.15
  YS02001929           JUNCTION     0.05     0.07     7.76     0  03:01        0.07
  YS02001658           JUNCTION     0.07     0.12     7.26     0  04:15        0.11
  YS02001661           JUNCTION     0.13     0.17     7.58     0  02:43        0.17
  YS02001664           JUNCTION     0.06     0.09     8.02     0  02:43        0.09
  YS02001622           JUNCTION     0.23     0.36     7.27     0  03:04        0.36
  YS02001633           JUNCTION     0.64     0.81     7.27     0  03:03        0.81
  YS02001649           JUNCTION     0.70     0.88     7.27     0  03:04        0.88
  YS02001757           JUNCTION     0.83     1.08     7.34     0  04:17        1.01
  YS02001895           JUNCTION     0.21     0.33     7.08     0  02:51        0.33
  YS02001625           JUNCTION     0.51     0.66     7.27     0  03:04        0.66
  YS02163301           JUNCTION     0.58     0.75     7.27     0  03:02        0.75
  YS02163601           JUNCTION     0.70     0.87     7.27     0  03:02        0.87
  YS02164001           JUNCTION     0.64     0.81     7.27     0  03:05        0.81
  YS02001647           JUNCTION     0.49     0.66     7.27     0  03:01        0.65
  YSB1154              JUNCTION     0.23     0.35     9.41     0  02:19        0.35
  YSB6556              JUNCTION     0.13     0.24     9.41     0  02:18        0.24
  YSB1174              JUNCTION     0.18     0.30     9.41     0  02:19        0.30
  YSB1171              JUNCTION     0.38     0.51     9.41     0  02:18        0.51
  YS02006553           JUNCTION     0.65     0.78     7.06     0  02:52        0.78
  YS02006561           JUNCTION     0.12     0.18     6.84     0  02:52        0.18
  YS02006556           JUNCTION     0.62     0.75     7.06     0  02:52        0.75
  YS02006558           JUNCTION     0.67     0.79     7.06     0  02:52        0.79
  YS02001783           JUNCTION     0.20     0.32     6.46     0  02:52        0.32
  YS02001784           JUNCTION     0.24     0.35     6.42     0  02:53        0.35
  YS02001786           JUNCTION     0.20     0.30     6.33     0  02:53        0.30
  YS02001788           JUNCTION     0.14     0.22     6.20     0  02:53        0.22
  YS02001790           JUNCTION     0.17     0.27     5.91     0  02:54        0.27
  YS02001791           JUNCTION     0.12     0.18     5.65     0  02:54        0.18
  YS02001793           JUNCTION     0.07     0.11     4.94     0  02:36        0.11
  WS02004139           JUNCTION     0.62     0.72     5.63     0  06:49        0.72
  WSC                  OUTFALL      0.30     0.35     1.02     0  04:45        0.35
  3                    OUTFALL      0.05     0.19     6.19     0  00:20        0.18
  4                    OUTFALL      0.01     0.09     7.09     0  04:49        0.09
  5                    OUTFALL      0.00     0.00     5.00     0  00:00        0.00
  JK-storage           STORAGE      0.30     3.00     3.80     0  00:10        3.00
  CC-storage           STORAGE      0.06     0.20     7.20     0  04:10        0.20
  XR-storage           STORAGE      4.35     6.29     4.29     0  04:13        6.29
  
  
  *******************
  Node Inflow Summary
  *******************
  
  -------------------------------------------------------------------------------------------------
                                  Maximum  Maximum                  Lateral       Total        Flow
                                  Lateral    Total  Time of Max      Inflow      Inflow     Balance
                                   Inflow   Inflow   Occurrence      Volume      Volume       Error
  Node                 Type           LPS      LPS  days hr:min    10^6 ltr    10^6 ltr     Percent
  -------------------------------------------------------------------------------------------------
  WS02001211           JUNCTION      7.35   387.69     0  06:50       0.207        7.27       0.505
  WS02001212           JUNCTION      0.00   387.79     0  06:50           0        7.23       0.306
  WS02001213           JUNCTION      0.00   388.08     0  06:50           0        7.21       0.284
  WS02003069           JUNCTION      0.32   766.56     0  04:43     0.00902          14       0.197
  WS02003072           JUNCTION      0.00   766.35     0  04:43           0          14       0.245
  WS02003073           JUNCTION      1.82   768.06     0  04:44      0.0514          14       0.276
  WS02003060           JUNCTION     16.53   766.26     0  04:42       0.466        14.1       0.186
  WS02003066           JUNCTION      0.00   434.99     0  03:21           0        6.45       0.057
  WS02003059           JUNCTION      0.00   388.84     0  06:51           0        7.19       0.529
  WS02003067           JUNCTION      0.00   434.96     0  03:20           0        6.46       0.125
  WS02004401           JUNCTION      0.00   438.90     0  03:15           0        6.65       0.265
  WS02004402           JUNCTION      0.00   437.93     0  03:15           0        6.63       0.256
  WS02004403           JUNCTION      0.00   437.51     0  03:16           0        6.62       0.237
  WS02004404           JUNCTION      0.16   437.51     0  03:16     0.00457        6.61       0.184
  WS02004406           JUNCTION      0.00   437.45     0  03:17           0        6.58       0.450
  WS02004409           JUNCTION      0.00   437.33     0  03:17           0        6.54       0.190
  WS02004410           JUNCTION      0.00   436.37     0  03:19           0        6.53       0.223
  WS02004411           JUNCTION      0.00   435.78     0  03:19           0        6.52       0.235
  WS02004412           JUNCTION      0.00   435.39     0  03:20           0         6.5       0.263
  WS02004413           JUNCTION      0.00   435.17     0  03:20           0        6.48       0.401
  WS02004405           JUNCTION      0.04   437.48     0  03:17     0.00107         6.6       0.276
  WS02006109           JUNCTION      1.23   442.89     0  03:13      0.0347        6.73       0.221
  WS02006110           JUNCTION      0.00   442.88     0  03:13           0        6.71       0.242
  WS02006111           JUNCTION      0.00   454.99     0  03:13           0        6.69       0.041
  WS02006112           JUNCTION      7.00   445.92     0  03:13      0.0193        6.71       0.372
  WS02006113           JUNCTION      0.00   443.14     0  03:13           0         6.7       0.094
  WS02006115           JUNCTION      0.00   442.57     0  03:14           0        6.68       0.225
  WS02006116           JUNCTION      0.00   440.36     0  03:14           0        6.67       0.221
  WS02006230           JUNCTION     10.28   392.51     0  04:23        0.29        6.01       0.177
  WS02006231           JUNCTION      0.00   383.84     0  04:22           0        5.72       0.074
  WS02006232           JUNCTION      0.00   384.08     0  04:22           0        5.73       0.200
  WS02006234           JUNCTION      0.00   385.42     0  04:22           0        5.73       0.058
  WS02006235           JUNCTION      0.00   385.90     0  04:21           0        5.77       0.129
  WS02006238           JUNCTION      0.00   314.15     0  04:51           0        4.05       0.103
  WS02006240           JUNCTION      0.00   315.92     0  05:31           0        4.03       0.102
  WS02006242           JUNCTION      0.00   319.05     0  05:31           0        4.02       0.117
  WS02006243           JUNCTION      0.00   323.93     0  05:30           0        4.01      -0.202
  WS02006245           JUNCTION      0.00   327.03     0  05:30           0        4.01       0.084
  WS02006247           JUNCTION      0.00   330.45     0  04:20           0        4.01       0.023
  WS02006248           JUNCTION      0.00   334.95     0  04:20           0        4.01      -0.043
  WS02006249           JUNCTION      0.00   401.32     0  04:48           0        4.18       0.084
  WS02006239           JUNCTION      0.00   314.12     0  04:50           0        4.03       0.123
  WS02006251           JUNCTION      0.08   403.61     0  03:10     0.00217        4.23      -0.000
  WS02006252           JUNCTION      0.00   400.00     0  04:40           0        4.07      -0.000
  WS02006253           JUNCTION      1.10    44.10     0  05:59      0.0025       0.163      -0.063
  WS02006256           JUNCTION      0.00   599.15     0  00:20           0         3.1       0.074
  WS02004138           JUNCTION      0.00   380.00     0  06:40           0         7.1       0.066
  WS02004407           JUNCTION      0.00   437.38     0  03:17           0        6.55       0.084
  WS02006228           JUNCTION      0.00   441.66     0  03:13           0         6.7       0.153
  WS02006229           JUNCTION      0.00   441.67     0  03:12           0        6.71       0.142
  WS02006280           JUNCTION      0.00   155.92     0  02:20           0       0.717       0.010
  WS02006284           JUNCTION      0.10   155.91     0  02:20      0.0027       0.719       0.150
  WS02006287           JUNCTION      0.00   155.83     0  02:20           0       0.717       0.100
  WSF200               JUNCTION      0.00   434.98     0  03:21           0        6.45       0.052
  HS02004901           JUNCTION      8.71     8.71     0  02:11      0.0232      0.0234       8.115
  HS02004881           JUNCTION      3.49    28.72     0  02:19      0.0101       0.106       0.239
  HS02004876           JUNCTION      5.42    25.55     0  02:19      0.0194       0.096       0.544
  HS02004870           JUNCTION      6.09    20.28     0  02:19      0.0192      0.0767       0.138
  HS02004862           JUNCTION      4.93    14.68     0  02:19      0.0247      0.0577       0.290
  HS02004856           JUNCTION      4.50     9.81     0  02:18      0.0144      0.0344       4.356
  HS02004852           JUNCTION      0.00     5.64     0  02:19           0        0.02       0.242
  HS02004848           JUNCTION      9.56     9.56     0  02:21      0.0454      0.0454       0.093
  HS02004842           JUNCTION      0.00     4.48     0  00:03           0      0.0384      51.250
  HS02004837           JUNCTION     16.01    19.73     0  02:17       0.212       0.238       0.342
  HS02004830           JUNCTION      0.15    19.86     0  02:18     0.00423       0.228       0.543
  HS02004824           JUNCTION     10.60    30.33     0  02:21      0.0595       0.286       0.188
  HS02004817           JUNCTION      0.60    30.93     0  02:21      0.0169       0.303       5.822
  HS02004807           JUNCTION     11.50    41.28     0  02:20      0.0353       0.321       1.331
  HS02004802           JUNCTION      0.00    41.37     0  02:21           0       0.317       1.298
  HS02004799           JUNCTION      8.79    97.59     0  02:17      0.0285       0.358       0.631
  HS02004792           JUNCTION     39.69    89.11     0  02:17       0.127        0.33       0.125
  HS02004788           JUNCTION     13.56    51.86     0  02:18      0.0867       0.205       0.191
  HS02004785           JUNCTION      0.15    38.92     0  02:17     0.00423        0.12       0.401
  HS02004777           JUNCTION      0.03    39.39     0  02:16    0.000846        0.12       4.497
  HS02004770           JUNCTION     33.66    40.86     0  02:14      0.0993       0.121       2.627
  HS02004480           JUNCTION      0.00   114.97     0  02:18           0       0.415       0.169
  HS02004479           JUNCTION      0.00    17.76     0  02:20           0      0.0693       1.061
  HS02004478           JUNCTION      0.00   155.83     0  02:19           0       0.717       0.089
  YS02001745           JUNCTION     48.83    48.83     0  02:58       0.569       0.569       0.083
  YS02001748           JUNCTION      0.04    48.95     0  02:58     0.00127       0.571      -0.006
  YS02001751           JUNCTION      0.01   142.75     0  04:28     0.00031       0.711       0.317
  YS02001754           JUNCTION      0.26   258.24     0  04:03     0.00733        1.15       0.845
  YS02001762           JUNCTION      0.00   112.40     0  04:17           0       0.718       1.928
  YS02001765           JUNCTION      0.00   125.11     0  04:24           0        0.71       2.039
  YS02001767           JUNCTION      0.54   115.20     0  04:23      0.0151       0.716       2.889
  YS02001770           JUNCTION     63.73    77.19     0  02:34       0.676       0.718       2.356
  YS02001774           JUNCTION      0.00    49.45     0  04:21           0       0.127      13.245
  YS02001779           JUNCTION      0.01    37.32     0  04:20    0.000141      0.0698       8.422
  YS02001882           JUNCTION      0.00     3.19     0  02:10           0     0.00399      61.146
  YS02001884           JUNCTION      0.00     9.28     0  02:10           0      0.0161      39.021
  YS02001759           JUNCTION     62.67   152.67     0  03:02       0.633        1.32       1.238
  YS02001887           JUNCTION     83.84    83.84     0  02:41       0.767       0.775       0.882
  YS02001890           JUNCTION      0.00    83.38     0  02:44           0       0.755       0.996
  YS02001898           JUNCTION      0.00    82.99     0  02:47           0       0.744       0.257
  YS02001901           JUNCTION      0.00    83.01     0  02:47           0       0.744       0.696
  YS02001904           JUNCTION      0.00    82.63     0  02:48           0       0.743       0.649
  YS02001907           JUNCTION      0.00   148.84     0  02:54           0        1.58       1.373
  YS02001910           JUNCTION      0.00    67.29     0  03:00           0        0.85       1.153
  YS02001915           JUNCTION     44.04    66.80     0  03:01        0.49       0.854       0.483
  YS02001918           JUNCTION      0.00    23.06     0  03:03           0       0.365       0.253
  YS02001619           JUNCTION     42.72    42.72     0  02:55       0.483       0.483       0.135
  YS02001629           JUNCTION      0.00    46.03     0  03:07           0       0.466       1.209
  YS02001641           JUNCTION      0.00   103.39     0  04:23           0        0.99       1.330
  YS02001644           JUNCTION     46.34   141.16     0  03:06       0.546        1.52       1.051
  YS02001652           JUNCTION      0.00   110.30     0  04:06           0       0.623       1.426
  YS02001655           JUNCTION      0.15    64.48     0  04:16     0.00434       0.571       0.644
  YS02001920           JUNCTION      2.87    23.07     0  03:02      0.0809       0.367       0.496
  YS02001923           JUNCTION      0.04    20.20     0  03:01     0.00106       0.286       0.087
  YS02001926           JUNCTION      0.05    20.21     0  03:01     0.00147       0.287       0.629
  YS02001929           JUNCTION     20.16    20.16     0  03:01       0.285       0.285       0.082
  YS02001658           JUNCTION      0.00    58.99     0  02:43           0       0.556       0.036
  YS02001661           JUNCTION      0.00    58.99     0  02:43           0       0.557       0.136
  YS02001664           JUNCTION     58.99    58.99     0  02:43       0.557       0.557       0.027
  YS02001622           JUNCTION      0.00    44.96     0  02:49           0       0.482       0.591
  YS02001633           JUNCTION     47.12    94.48     0  03:00       0.562        1.02       1.874
  YS02001649           JUNCTION      0.00   224.86     0  04:22           0        2.08       1.161
  YS02001757           JUNCTION      0.00   461.05     0  03:53           0        4.21       1.723
  YS02001895           JUNCTION      0.00    83.06     0  02:46           0       0.747       0.452
  YS02001625           JUNCTION      0.00    44.21     0  02:53           0       0.479       3.306
  YS02163301           JUNCTION      0.00    55.22     0  04:25           0       0.467       2.738
  YS02163601           JUNCTION      0.11    98.05     0  03:02      0.0031       0.995       1.966
  YS02164001           JUNCTION      0.00    97.28     0  02:57           0       0.985       1.214
  YS02001647           JUNCTION      0.00   144.20     0  03:03           0        1.49       0.807
  YSB1154              JUNCTION      9.64     9.64     0  02:15      0.0345      0.0359       4.185
  YSB6556              JUNCTION      0.00     9.52     0  02:18           0       0.037       3.482
  YSB1174              JUNCTION      9.98     9.98     0  02:10      0.0252      0.0263       5.140
  YSB1171              JUNCTION      0.00    17.78     0  02:18           0      0.0688      10.115
  YS02006553           JUNCTION      0.00   148.87     0  02:54           0        1.57       0.893
  YS02006561           JUNCTION      0.00   218.64     0  02:52           0        2.22       0.026
  YS02006556           JUNCTION      0.00   148.94     0  02:55           0        1.58       0.641
  YS02006558           JUNCTION     70.53   218.66     0  02:52       0.699        2.25       0.194
  YS02001783           JUNCTION      0.00   218.63     0  02:52           0        2.22       0.059
  YS02001784           JUNCTION      1.06   219.69     0  02:53      0.0299        2.25       0.099
  YS02001786           JUNCTION      0.06   219.73     0  02:53     0.00159        2.25       0.096
  YS02001788           JUNCTION      0.07   219.79     0  02:53       0.002        2.25       0.054
  YS02001790           JUNCTION      0.15   219.94     0  02:54     0.00437        2.25       0.069
  YS02001791           JUNCTION      0.00   219.94     0  02:54           0        2.25       0.034
  YS02001793           JUNCTION      0.00   219.94     0  02:54           0        2.25       0.015
  WS02004139           JUNCTION      0.32   380.32     0  06:42     0.00905         7.1       0.531
  WSC                  OUTFALL       0.00   767.90     0  04:45           0          14       0.000
  3                    OUTFALL       0.00   444.59     0  00:20           0        1.35       0.000
  4                    OUTFALL       0.00    87.30     0  04:49           0       0.167       0.000
  5                    OUTFALL       0.00     0.00     0  00:00           0           0       0.000 ltr
  JK-storage           STORAGE       0.00   219.94     0  02:54           0         2.4     -22.641
  CC-storage           STORAGE       0.00   362.44     0  03:02           0        3.71      -9.981
  XR-storage           STORAGE     280.13   280.13     0  02:48        6.59        7.19      -0.001
  
  
  **********************
  Node Surcharge Summary
  **********************
  
  Surcharging occurs when water rises above the top of the highest conduit.
  ---------------------------------------------------------------------
                                               Max. Height   Min. Depth
                                   Hours       Above Crown    Below Rim
  Node                 Type      Surcharged         Meters       Meters
  ---------------------------------------------------------------------
  WS02006109           JUNCTION        1.07          0.046        1.774
  WS02006232           JUNCTION        1.04          0.048        1.432
  WS02006235           JUNCTION        0.18          0.026        1.264
  WS02006238           JUNCTION        0.65          0.045        1.385
  WS02006242           JUNCTION        0.38          0.034        0.786
  WS02006239           JUNCTION        0.01          0.001        1.289
  WS02006252           JUNCTION        1.81          0.184        0.916
  WS02006228           JUNCTION        0.92          0.051        2.149
  YS02001757           JUNCTION        0.14          0.077        1.133
  
  
  *********************
  Node Flooding Summary
  *********************
  
  No nodes were flooded.
  
  
  **********************
  Storage Volume Summary
  **********************
  
  --------------------------------------------------------------------------------------------------
                         Average     Avg  Evap Exfil       Maximum     Max    Time of Max    Maximum
                          Volume    Pcnt  Pcnt  Pcnt        Volume    Pcnt     Occurrence    Outflow
  Storage Unit           1000 m3    Full  Loss  Loss       1000 m3    Full    days hr:min        LPS
  --------------------------------------------------------------------------------------------------
  JK-storage               0.015       5     0     0         0.151      52       0  00:10     599.15
  CC-storage               0.161       1     0     0         0.563       4       0  04:10     400.00
  XR-storage               0.523      56     0     0         0.754      81       0  04:13     380.00
  
  
  ***********************
  Outfall Loading Summary
  ***********************
  
  -----------------------------------------------------------
                         Flow       Avg       Max       Total
                         Freq      Flow      Flow      Volume
  Outfall Node           Pcnt       LPS       LPS    10^6 ltr
  -----------------------------------------------------------
  WSC                  100.00    585.67    767.90      13.996
  3                     68.78    101.19    444.59       1.351
  4                     22.38     33.20     87.30       0.167
  5                      0.00      0.00      0.00       0.000
  -----------------------------------------------------------
  System                47.79    720.05   1045.72      15.514
  
  
  ********************
  Link Flow Summary
  ********************
  
  -----------------------------------------------------------------------------
                                 Maximum  Time of Max   Maximum    Max/    Max/
                                  |Flow|   Occurrence   |Veloc|    Full    Full
  Link                 Type          LPS  days hr:min     m/sec    Flow   Depth
  -----------------------------------------------------------------------------
  WS02003066WSF200     CONDUIT    434.98     0  03:21      2.65    0.07    0.21
  WS02006287WS02006284 CONDUIT    155.82     0  02:20      1.47    0.07    0.19
  WS02006284WS02006280 CONDUIT    155.92     0  02:20      1.72    0.07    0.17
  WS02006280WS02006229 CONDUIT    155.92     0  02:20      2.76    0.03    0.12
  WS02006229WS02006228 CONDUIT    441.66     0  03:13      0.88    1.46    1.00
  WS02006256WS02006235 CONDUIT    158.12     0  00:13      2.30    1.67    1.00
  WS02006253WS02006251 CONDUIT     83.87     0  07:19      0.44    0.25    0.89
  WS02006252WS02006251 CONDUIT    400.09     0  04:40      3.18    1.47    1.00
  WS02006251WS02006249 CONDUIT    401.32     0  04:48      1.15    1.16    0.86
  WS02006249WS02006248 CONDUIT    334.95     0  04:20      1.16    1.83    0.82
  WS02006248WS02006247 CONDUIT    330.45     0  04:20      1.13    0.72    0.85
  WS02006247WS02006245 CONDUIT    327.03     0  05:30      1.10    2.59    0.89
  WS02006245WS02006243 CONDUIT    323.93     0  05:30      1.14    0.96    0.90
  WS02006243WS02006242 CONDUIT    319.05     0  05:31      0.99    0.68    0.97
  WS02006242WS02006240 CONDUIT    315.92     0  05:31      0.91    1.25    0.99
  WS02006240WS02006239 CONDUIT    314.12     0  04:50      0.93    0.99    1.00
  WS02006239WS02006238 CONDUIT    314.15     0  04:51      0.82    1.01    1.00
  WS02006238WS02006235 CONDUIT    314.15     0  04:51      0.91    0.70    1.00
  WS02006235WS02006234 CONDUIT    385.42     0  04:22      1.01    4.07    0.98
  WS02006234WS02006232 CONDUIT    384.08     0  04:22      1.02    0.78    1.00
  WS02006232WS02006231 CONDUIT    383.84     0  04:22      1.05    0.80    0.92
  WS02006231WS02006230 CONDUIT    382.23     0  04:23      1.32    5.80    0.79
  WS02006230WS02006229 CONDUIT    391.95     0  04:23      1.02    8.72    1.00
  WS02006228WS02006109 CONDUIT    441.66     0  03:13      0.88    1.93    1.00
  WS02006116WS02004401 CONDUIT    438.90     0  03:15      0.73    0.60    0.76
  WS02006115WS02006116 CONDUIT    440.36     0  03:14      0.79    0.57    0.68
  WS02006113WS02006111 CONDUIT    454.99     0  03:13      2.30    0.55    0.42
  WS02006112WS02006115 CONDUIT    442.57     0  03:14      0.66    0.26    0.81
  WS02006111WS02006112 CONDUIT    444.99     0  03:13      1.31    0.21    0.66
  WS02006110WS02006113 CONDUIT    443.14     0  03:13      1.09    0.40    0.75
  WS02006109WS02006110 CONDUIT    442.88     0  03:13      0.89    0.85    0.96
  WS02004411WS02004412 CONDUIT    435.39     0  03:20      0.84    0.62    0.63
  WS02004401WS02004402 CONDUIT    437.93     0  03:15      0.77    0.53    0.79
  WS02004413WS02003067 CONDUIT    434.96     0  03:20      0.99    0.19    0.55
  WS02004412WS02004413 CONDUIT    435.17     0  03:20      0.72    0.29    0.72
  WS02004410WS02004411 CONDUIT    435.78     0  03:19      0.86    0.60    0.62
  WS02004409WS02004410 CONDUIT    436.37     0  03:19      0.89    0.56    0.60
  WS02004407WS02004409 CONDUIT    437.33     0  03:17      1.37    0.15    0.43
  WS02004406WS02004407 CONDUIT    437.38     0  03:17      0.92    0.20    0.58
  WS02004405WS02004406 CONDUIT    437.45     0  03:17      0.62    0.86    0.90
  WS02004404WS02004405 CONDUIT    437.45     0  03:17      0.85    4.29    0.89
  WS02004403WS02004404 CONDUIT    437.35     0  03:16      0.74    0.32    0.86
  WS02004402WS02004403 CONDUIT    437.51     0  03:16      0.75    0.63    0.81
  WS02004139WS02001211 CONDUIT    380.34     0  06:50      0.69    0.48    0.58
  WS02004138WS02004139 CONDUIT    380.00     0  06:42      2.95    0.08    0.43
  WS02003067WS02003066 CONDUIT    434.99     0  03:21      1.07    0.14    0.39
  WS02001213WS02003059 CONDUIT    388.84     0  06:51      0.68    0.64    0.73
  WS02001212WS02001213 CONDUIT    388.08     0  06:50      1.31    0.60    0.44
  WS02001211WS02001212 CONDUIT    387.79     0  06:50      0.77    0.30    0.62
  WS02003072WS02003073 CONDUIT    766.24     0  04:44      1.61    1.65    0.44
  WS02003069WS02003072 CONDUIT    766.35     0  04:43      1.52    0.37    0.46
  WS02003060WS02003069 CONDUIT    766.24     0  04:43      1.78    0.30    0.41
  WS02003059WS02003060 CONDUIT    390.12     0  06:51      0.93    0.25    0.61
  HS02004901HS02004770 CONDUIT      7.70     0  02:16      0.04    0.03    0.29
  HS02004876HS02004881 CONDUIT     25.59     0  02:19      0.46    0.27    0.08
  HS02004870HS02004876 CONDUIT     20.26     0  02:19      0.32    0.01    0.09
  HS02004842HS02004848 CONDUIT      4.23     0  02:30      0.02    0.00    0.27
  HS02004837HS02004842 CONDUIT      4.48     0  00:03      0.42    0.00    0.28
  HS02004830HS02004837 CONDUIT     19.71     0  02:18      0.41    0.02    0.07
  HS02004824HS02004830 CONDUIT     19.86     0  02:19      0.45    0.03    0.06
  HS02004817HS02004824 CONDUIT     30.33     0  02:21      0.17    0.01    0.38
  HS02004770HS02004777 CONDUIT     39.36     0  02:16      0.19    0.07    0.30
  HS02004799HS02004480 CONDUIT     97.38     0  02:18      0.51    0.12    0.27
  HS02004792HS02004799 CONDUIT     89.05     0  02:17      0.59    0.05    0.21
  HS02004788HS02004792 CONDUIT     51.81     0  02:19      0.75    0.03    0.10
  HS02004785HS02004788 CONDUIT     38.75     0  02:19      0.45    0.29    0.12
  HS02004777HS02004785 CONDUIT     38.77     0  02:17      0.23    0.05    0.24
  HS02004480HS02004478 CONDUIT    114.91     0  02:19      0.85    0.48    0.19
  HS02004479HS02004480 CONDUIT     17.91     0  02:21      0.15    0.02    0.27
  HS02004862HS02004870 CONDUIT     14.63     0  02:20      0.41    0.02    0.05
  HS02004848HS02004852 CONDUIT      5.64     0  02:19      0.27    0.01    0.03
  HS02004856HS02004862 CONDUIT      9.78     0  02:19      0.30    0.01    0.05
  HS02004852HS02004856 CONDUIT      5.60     0  02:20      0.09    0.01    0.08
  HS02004802HS02004478 CONDUIT     41.58     0  02:22      0.26    0.04    0.23
  HS02004478WS02006287 CONDUIT    155.83     0  02:20      1.16    0.04    0.15
  HS02004817HS02004807 CONDUIT     31.23     0  02:23      0.09    0.02    0.48
  HS02004807HS02004802 CONDUIT     41.37     0  02:21      0.22    0.08    0.27
  YS02001759YS02001757 CONDUIT    143.92     0  03:02      0.19    0.10    0.95
  YS02001762YS02001759 CONDUIT    112.04     0  04:17      0.17    0.13    0.88
  YS02001765YS02001762 CONDUIT    112.40     0  04:17      0.22    0.11    0.85
  YS02001770YS02001767 CONDUIT     77.55     0  02:51      0.33    0.31    0.77
  YS02001774YS02001770 CONDUIT     49.45     0  04:21      0.13    0.03    0.79
  YS02001779YS02001774 CONDUIT     44.45     0  04:20      0.08    0.02    0.71
  YS02001649YS02001757 CONDUIT    216.35     0  03:08      0.28    0.13    0.94
  YS02001767YS02001765 CONDUIT    125.11     0  04:24      0.26    0.16    0.79
  YS02006561YS02001783 CONDUIT    218.63     0  02:52      1.62    0.11    0.31
  YS02001783YS02001784 CONDUIT    218.63     0  02:53      1.10    0.30    0.42
  YS02001784YS02001785 CONDUIT    219.67     0  02:53      1.15    0.51    0.41
  YS02001788YS02001790 CONDUIT    219.79     0  02:54      1.71    0.16    0.30
  YS02001790YS02001791 CONDUIT    219.94     0  02:54      1.93    0.24    0.28
  YS02001791YS02001793 CONDUIT    219.94     0  02:54      3.93    0.09    0.18
  YS02001910YS02001907 CONDUIT     67.39     0  03:01      0.49    0.04    0.66
  YS02001786YS02001788 CONDUIT    219.72     0  02:53      1.57    0.42    0.32
  YS02001915YS02001910 CONDUIT     67.29     0  03:00      0.44    0.03    0.45
  YS02001918YS02001915 CONDUIT     23.05     0  03:03      0.44    0.01    0.21
  YS02001923YS02001920 CONDUIT     20.20     0  03:02      0.37    0.01    0.12
  YS02001926YS02001923 CONDUIT     20.16     0  03:01      0.42    0.03    0.11
  YS02001929YS02001926 CONDUIT     20.15     0  03:01      0.44    0.01    0.11
  YS02001920YS02001918 CONDUIT     23.06     0  03:03      0.39    0.02    0.13
  YS02001629YS02163301 CONDUIT     55.22     0  04:25      0.10    0.07    0.73
  YS02001619YS02001622 CONDUIT     44.96     0  02:49      0.61    0.07    0.35
  YS02001622YS02001625 CONDUIT     44.21     0  02:53      0.21    0.02    0.51
  YS02001625YS02001629 CONDUIT     46.03     0  03:07      0.21    0.02    0.50
  YS02163301YS02001633 CONDUIT     60.00     0  04:19      0.10    0.06    0.78
  YS02163601YS02164001 CONDUIT     97.28     0  02:57      0.14    0.09    0.84
  YS02164001YS02001641 CONDUIT    103.39     0  04:23      0.16    0.14    0.82
  YS02001641YS02001644 CONDUIT    104.06     0  04:23      0.16    0.34    0.83
  YS02001647YS02001649 CONDUIT    150.62     0  03:05      0.24    0.08    0.76
  YS02006553YS02006556 CONDUIT    148.94     0  02:55      0.24    0.13    0.74
  YS02006556YS02006558 CONDUIT    148.95     0  02:55      0.23    0.12    0.77
  YSB6556YSB1171       CONDUIT      9.63     0  02:21      0.05    0.01    0.54
  YS02001907YS02006553 CONDUIT    148.87     0  02:54      0.20    0.18    0.85
  YS02006558YS02006561 CONDUIT    218.64     0  02:52      2.09    0.48    0.40
  YS02001633YS02163601 CONDUIT     97.94     0  03:02      0.14    0.10    0.83
  YS02001644YS02001647 CONDUIT    144.20     0  03:03      0.23    0.08    0.74
  YS02001745YS02001748 CONDUIT     48.91     0  02:58      1.29    0.02    0.10
  YS02001748YS02001751 CONDUIT     86.50     0  04:26      1.01    0.04    0.28
  YS02001751YS02001754 CONDUIT    148.34     0  04:21      0.92    0.07    0.50
  YS02001754YS02001757 CONDUIT    195.90     0  04:03      0.33    0.08    0.84
  YS02001882YS02001884 CONDUIT      3.19     0  02:10      0.06    0.00    0.39
  YS02001884YS02001887 CONDUIT      9.28     0  02:10      0.06    0.01    0.48
  YS02001890YS02001895 CONDUIT     83.06     0  02:46      0.24    0.04    0.45
  YS02001895YS02001898 CONDUIT     82.99     0  02:47      0.47    0.14    0.31
  YS02001898YS02001901 CONDUIT     83.01     0  02:47      0.29    0.05    0.39
  YS02001901YS02001904 CONDUIT     82.63     0  02:48      0.25    0.13    0.44
  YS02001904YS02001907 CONDUIT     82.81     0  02:48      0.17    0.03    0.60
  YS02001887YS02001890 CONDUIT     83.38     0  02:44      0.20    0.14    0.53
  YS02001652YS02001649 CONDUIT     97.49     0  04:06      0.32    0.05    0.77
  YS02001655YS02001652 CONDUIT     79.50     0  04:18      1.00    0.04    0.53
  YS02001658YS02001655 CONDUIT     58.99     0  02:43      1.16    0.03    0.26
  YS02001661YS02001658 CONDUIT     58.99     0  02:43      1.30    0.02    0.11
  YS02001664YS02001661 CONDUIT     58.99     0  02:43      0.93    0.02    0.13
  YSB1154YSB6556       CONDUIT      9.52     0  02:18      0.19    0.02    0.43
  YSB1174YSB1171       CONDUIT      9.06     0  02:12      0.05    0.01    0.54
  YSB1171HS02004479    CONDUIT     17.76     0  02:20      0.54    0.01    0.41
  HS02004881HS02006253 CONDUIT     28.72     0  02:19      1.48    0.01    0.22
  YS02001793JiankangQianchi CONDUIT    219.94     0  02:54     11.63    0.02    0.55
  YS02001757CaochengTiaoxuchi CONDUIT    362.44     0  03:02      0.86    0.16    0.60
  WSF200WS02003060     CONDUIT    435.04     0  03:21      1.62    0.10    0.29
  1                    CONDUIT    767.90     0  04:45      3.10    0.27    0.35
  2                    CONDUIT     87.30     0  04:49      4.67    0.21    0.31
  3                    CONDUIT    444.59     0  00:20      9.54    0.71    0.63
  4                    CONDUIT      0.00     0  00:00      0.00    0.00    0.00
  CC-Pump-1            PUMP       200.00     0  02:50              1.00
  CC-Pump-2            PUMP       200.00     0  02:30              1.00
  JK-Pump-1            PUMP       300.00     0  03:20              1.00
  JK-Pump-2            PUMP       299.96     0  02:50              1.00
  XR-Pump-1            PUMP        95.00     0  00:00              1.00
  XR-Pump-2            PUMP        95.00     0  00:30              1.00
  XR-Pump-3            PUMP        95.00     0  00:00              1.00
  XR-Pump-4            PUMP        95.00     0  00:20              1.00
  
  
  ***************************
  Flow Classification Summary
  ***************************
  
  -------------------------------------------------------------------------------------
                      Adjusted    ---------- Fraction of Time in Flow Class ---------- 
                       /Actual         Up    Down  Sub   Sup   Up    Down  Norm  Inlet 
  Conduit               Length    Dry  Dry   Dry   Crit  Crit  Crit  Crit  Ltd   Ctrl  
  -------------------------------------------------------------------------------------
  WS02003066WSF200        1.00   0.05  0.01  0.00  0.00  0.94  0.00  0.00  0.75  0.00
  WS02006287WS02006284    1.00   0.04  0.02  0.00  0.72  0.23  0.00  0.00  0.79  0.00
  WS02006284WS02006280    1.00   0.05  0.00  0.00  0.00  0.00  0.00  0.95  0.00  0.00
  WS02006280WS02006229    1.00   0.05  0.00  0.00  0.00  0.00  0.00  0.95  0.00  0.00
  WS02006229WS02006228    1.00   0.00  0.00  0.00  1.00  0.00  0.00  0.00  0.00  0.00
  WS02006256WS02006235    1.00   0.00  0.00  0.00  0.99  0.00  0.00  0.00  0.00  0.00
  WS02006253WS02006251    1.00   0.03  0.01  0.00  0.96  0.00  0.00  0.00  0.00  0.00
  WS02006252WS02006251    1.00   0.09  0.00  0.00  0.00  0.00  0.91  0.00  0.00  0.00
  WS02006251WS02006249    1.00   0.00  0.00  0.00  1.00  0.00  0.00  0.00  0.33  0.00
  WS02006249WS02006248    1.00   0.00  0.00  0.00  0.88  0.00  0.12  0.00  0.00  0.00
  WS02006248WS02006247    1.00   0.00  0.00  0.00  0.97  0.00  0.00  0.02  0.22  0.00
  WS02006247WS02006245    1.00   0.00  0.00  0.00  0.97  0.00  0.00  0.03  0.00  0.00
  WS02006245WS02006243    1.00   0.01  0.00  0.00  0.94  0.00  0.00  0.05  0.05  0.00
  WS02006243WS02006242    1.00   0.01  0.00  0.00  0.99  0.00  0.00  0.00  0.26  0.00
  WS02006242WS02006240    1.00   0.01  0.00  0.00  0.99  0.00  0.00  0.00  0.00  0.00
  WS02006240WS02006239    1.00   0.01  0.00  0.00  0.95  0.00  0.00  0.04  0.01  0.00
  WS02006239WS02006238    1.00   0.00  0.00  0.00  1.00  0.00  0.00  0.00  0.02  0.00
  WS02006238WS02006235    1.00   0.00  0.00  0.00  1.00  0.00  0.00  0.00  0.00  0.00
  WS02006235WS02006234    1.00   0.00  0.00  0.00  0.95  0.00  0.05  0.00  0.00  0.00
  WS02006234WS02006232    1.00   0.00  0.00  0.00  0.99  0.00  0.00  0.00  0.08  0.00
  WS02006232WS02006231    1.00   0.00  0.00  0.00  0.99  0.00  0.00  0.00  0.00  0.00
  WS02006231WS02006230    1.00   0.01  0.00  0.00  0.61  0.00  0.38  0.00  0.00  0.00
  WS02006230WS02006229    1.00   0.00  0.00  0.00  0.99  0.00  0.00  0.01  0.00  0.00
  WS02006228WS02006109    1.00   0.00  0.00  0.00  1.00  0.00  0.00  0.00  0.00  0.00
  WS02006116WS02004401    1.00   0.03  0.00  0.00  0.97  0.00  0.00  0.00  0.00  0.00
  WS02006115WS02006116    1.00   0.03  0.00  0.00  0.97  0.00  0.00  0.01  0.00  0.00
  WS02006113WS02006111    1.00   0.02  0.00  0.00  0.00  0.98  0.00  0.00  0.14  0.00
  WS02006112WS02006115    1.00   0.02  0.01  0.00  0.97  0.00  0.00  0.00  0.00  0.00
  WS02006111WS02006112    1.00   0.02  0.00  0.00  0.97  0.00  0.00  0.00  0.96  0.00
  WS02006110WS02006113    1.00   0.00  0.02  0.00  0.98  0.00  0.00  0.00  0.00  0.00
  WS02006109WS02006110    1.00   0.00  0.00  0.00  1.00  0.00  0.00  0.00  0.00  0.00
  WS02004411WS02004412    1.00   0.04  0.00  0.00  0.96  0.00  0.00  0.00  0.00  0.00
  WS02004401WS02004402    1.00   0.03  0.00  0.00  0.97  0.00  0.00  0.00  0.00  0.00
  WS02004413WS02003067    1.00   0.04  0.01  0.00  0.00  0.00  0.94  0.00  0.00  0.00
  WS02004412WS02004413    1.00   0.04  0.00  0.00  0.96  0.00  0.00  0.00  0.03  0.00
  WS02004410WS02004411    1.00   0.04  0.00  0.00  0.96  0.00  0.00  0.00  0.03  0.00
  WS02004409WS02004410    1.00   0.04  0.00  0.00  0.96  0.00  0.00  0.00  0.04  0.00
  WS02004407WS02004409    1.00   0.04  0.00  0.00  0.96  0.00  0.00  0.00  0.87  0.00
  WS02004406WS02004407    1.00   0.00  0.04  0.00  0.96  0.00  0.00  0.00  0.00  0.00
  WS02004405WS02004406    1.00   0.00  0.00  0.00  1.00  0.00  0.00  0.00  0.03  0.00
  WS02004404WS02004405    1.00   0.00  0.00  0.00  1.00  0.00  0.00  0.00  0.00  0.00
  WS02004403WS02004404    1.00   0.00  0.03  0.00  0.97  0.00  0.00  0.00  0.01  0.00
  WS02004402WS02004403    1.00   0.03  0.00  0.00  0.97  0.00  0.00  0.00  0.00  0.00
  WS02004139WS02001211    1.00   0.00  0.00  0.00  1.00  0.00  0.00  0.00  0.00  0.00
  WS02004138WS02004139    1.00   0.00  0.00  0.00  1.00  0.00  0.00  0.00  1.00  0.00
  WS02003067WS02003066    1.00   0.06  0.00  0.00  0.94  0.00  0.00  0.00  0.00  0.00
  WS02001213WS02003059    1.00   0.00  0.00  0.00  1.00  0.00  0.00  0.00  0.00  0.00
  WS02001212WS02001213    1.00   0.00  0.00  0.00  0.84  0.00  0.16  0.00  0.00  0.00
  WS02001211WS02001212    1.00   0.00  0.00  0.00  1.00  0.00  0.00  0.00  0.00  0.00
  WS02003072WS02003073    1.00   0.00  0.00  0.00  0.00  0.00  0.00  1.00  0.00  0.00
  WS02003069WS02003072    1.00   0.00  0.00  0.00  1.00  0.00  0.00  0.00  0.29  0.00
  WS02003060WS02003069    1.00   0.00  0.00  0.00  1.00  0.00  0.00  0.00  0.15  0.00
  WS02003059WS02003060    1.00   0.00  0.00  0.00  1.00  0.00  0.00  0.00  0.01  0.00
  HS02004901HS02004770    1.00   0.04  0.00  0.00  0.96  0.00  0.00  0.00  0.03  0.00
  HS02004876HS02004881    1.00   0.00  0.00  0.00  1.00  0.00  0.00  0.00  0.00  0.00
  HS02004870HS02004876    1.00   0.00  0.00  0.00  0.99  0.01  0.00  0.00  0.95  0.00
  HS02004842HS02004848    1.00   0.00  0.05  0.00  0.95  0.00  0.00  0.00  0.70  0.00
  HS02004837HS02004842    1.00   0.00  0.00  0.00  1.00  0.00  0.00  0.00  0.11  0.00
  HS02004830HS02004837    1.00   0.00  0.00  0.00  1.00  0.00  0.00  0.00  0.99  0.00
  HS02004824HS02004830    1.00   0.00  0.00  0.00  1.00  0.00  0.00  0.00  0.00  0.00
  HS02004817HS02004824    1.00   0.00  0.00  0.00  1.00  0.00  0.00  0.00  1.00  0.00
  HS02004770HS02004777    1.00   0.00  0.04  0.00  0.96  0.00  0.00  0.00  0.08  0.00
  HS02004799HS02004480    1.00   0.00  0.02  0.00  0.94  0.00  0.04  0.00  0.00  0.00
  HS02004792HS02004799    1.00   0.00  0.00  0.00  1.00  0.00  0.00  0.00  0.98  0.00
  HS02004788HS02004792    1.00   0.00  0.00  0.00  1.00  0.00  0.00  0.00  0.98  0.00
  HS02004785HS02004788    1.00   0.00  0.00  0.00  1.00  0.00  0.00  0.00  0.00  0.00
  HS02004777HS02004785    1.00   0.00  0.00  0.00  1.00  0.00  0.00  0.00  0.21  0.00
  HS02004480HS02004478    1.00   0.05  0.00  0.00  0.75  0.00  0.00  0.20  0.00  0.00
  HS02004479HS02004480    1.00   0.02  0.00  0.00  0.98  0.00  0.00  0.00  0.16  0.00
  HS02004862HS02004870    1.00   0.00  0.00  0.00  1.00  0.00  0.00  0.00  0.05  0.00
  HS02004848HS02004852    1.00   0.05  0.00  0.00  0.95  0.00  0.00  0.00  0.70  0.00
  HS02004856HS02004862    1.00   0.00  0.07  0.00  0.93  0.00  0.00  0.00  0.74  0.00
  HS02004852HS02004856    1.00   0.04  0.01  0.00  0.95  0.00  0.00  0.00  0.82  0.00
  HS02004802HS02004478    1.00   0.05  0.01  0.00  0.95  0.00  0.00  0.00  0.00  0.00
  HS02004478WS02006287    1.00   0.05  0.00  0.00  0.93  0.02  0.00  0.00  0.81  0.00
  HS02004817HS02004807    1.00   0.00  0.04  0.00  0.96  0.00  0.00  0.00  0.00  0.00
  HS02004807HS02004802    1.00   0.04  0.00  0.00  0.95  0.00  0.00  0.00  0.01  0.00
  YS02001759YS02001757    1.00   0.00  0.00  0.00  1.00  0.00  0.00  0.00  0.17  0.00
  YS02001762YS02001759    1.00   0.00  0.00  0.00  1.00  0.00  0.00  0.00  0.05  0.00
  YS02001765YS02001762    1.00   0.00  0.00  0.00  1.00  0.00  0.00  0.00  0.23  0.00
  YS02001770YS02001767    1.00   0.00  0.00  0.00  1.00  0.00  0.00  0.00  0.00  0.00
  YS02001774YS02001770    1.00   0.00  0.05  0.00  0.95  0.00  0.00  0.00  0.07  0.00
  YS02001779YS02001774    1.00   0.00  0.00  0.00  1.00  0.00  0.00  0.00  0.27  0.00
  YS02001649YS02001757    1.00   0.00  0.00  0.00  1.00  0.00  0.00  0.00  0.19  0.00
  YS02001767YS02001765    1.00   0.00  0.00  0.00  1.00  0.00  0.00  0.00  0.01  0.00
  YS02006561YS02001783    1.00   0.07  0.00  0.00  0.00  0.93  0.00  0.00  0.73  0.00
  YS02001783YS02001784    1.00   0.00  0.07  0.00  0.93  0.00  0.00  0.00  0.03  0.00
  YS02001784YS02001785    1.00   0.00  0.00  0.00  1.00  0.00  0.00  0.00  0.26  0.00
  YS02001788YS02001790    1.00   0.00  0.00  0.00  0.07  0.93  0.00  0.00  0.87  0.00
  YS02001790YS02001791    1.00   0.00  0.00  0.00  0.00  1.00  0.00  0.00  0.44  0.00
  YS02001791YS02001793    1.00   0.00  0.00  0.00  0.00  1.00  0.00  0.00  0.00  0.00
  YS02001910YS02001907    1.00   0.00  0.00  0.00  0.99  0.00  0.00  0.00  0.13  0.00
  YS02001786YS02001788    1.00   0.00  0.00  0.00  0.08  0.92  0.00  0.00  0.00  0.00
  YS02001915YS02001910    1.00   0.00  0.00  0.00  1.00  0.00  0.00  0.00  0.25  0.00
  YS02001918YS02001915    1.00   0.00  0.00  0.00  1.00  0.00  0.00  0.00  0.81  0.00
  YS02001923YS02001920    1.00   0.00  0.00  0.00  1.00  0.00  0.00  0.00  1.00  0.00
  YS02001926YS02001923    1.00   0.00  0.03  0.00  0.00  0.00  0.97  0.00  0.00  0.00
  YS02001929YS02001926    1.00   0.00  0.04  0.00  0.96  0.00  0.00  0.00  0.86  0.00
  YS02001920YS02001918    1.00   0.00  0.00  0.00  1.00  0.00  0.00  0.00  0.00  0.00
  YS02001629YS02163301    1.00   0.06  0.00  0.00  0.93  0.00  0.00  0.00  0.00  0.00
  YS02001619YS02001622    1.00   0.04  0.00  0.00  0.96  0.00  0.00  0.00  0.00  0.00
  YS02001622YS02001625    1.00   0.04  0.00  0.00  0.96  0.00  0.00  0.00  0.13  0.00
  YS02001625YS02001629    1.00   0.05  0.03  0.00  0.91  0.00  0.01  0.00  0.00  0.00
  YS02163301YS02001633    1.00   0.00  0.06  0.00  0.94  0.00  0.00  0.00  0.00  0.00
  YS02163601YS02164001    1.00   0.00  0.03  0.00  0.97  0.00  0.00  0.00  0.00  0.00
  YS02164001YS02001641    1.00   0.00  0.03  0.00  0.97  0.00  0.00  0.00  0.07  0.00
  YS02001641YS02001644    1.00   0.00  0.00  0.00  1.00  0.00  0.00  0.00  0.00  0.00
  YS02001647YS02001649    1.00   0.00  0.07  0.00  0.93  0.00  0.00  0.00  0.01  0.00
  YS02006553YS02006556    1.00   0.00  0.00  0.00  1.00  0.00  0.00  0.00  0.03  0.00
  YS02006556YS02006558    1.00   0.00  0.00  0.00  1.00  0.00  0.00  0.00  0.00  0.00
  YSB6556YSB1171          1.00   0.02  0.02  0.00  0.96  0.00  0.00  0.00  0.00  0.00
  YS02001907YS02006553    1.00   0.00  0.00  0.00  1.00  0.00  0.00  0.00  0.00  0.00
  YS02006558YS02006561    1.00   0.07  0.00  0.00  0.00  0.93  0.00  0.00  0.72  0.00
  YS02001633YS02163601    1.00   0.00  0.00  0.00  1.00  0.00  0.00  0.00  0.20  0.00
  YS02001644YS02001647    1.00   0.00  0.07  0.00  0.93  0.00  0.00  0.00  0.00  0.00
  YS02001745YS02001748    1.00   0.00  0.00  0.00  0.00  0.12  0.00  0.88  0.08  0.00
  YS02001748YS02001751    1.00   0.00  0.00  0.00  0.98  0.02  0.00  0.00  0.62  0.00
  YS02001751YS02001754    1.00   0.00  0.00  0.00  0.92  0.00  0.00  0.08  0.02  0.00
  YS02001754YS02001757    1.00   0.00  0.00  0.00  1.00  0.00  0.00  0.00  0.27  0.00
  YS02001882YS02001884    1.00   0.06  0.00  0.00  0.94  0.00  0.00  0.00  0.00  0.00
  YS02001884YS02001887    1.00   0.03  0.01  0.00  0.96  0.00  0.00  0.00  0.00  0.00
  YS02001890YS02001895    1.00   0.00  0.06  0.00  0.93  0.00  0.00  0.00  0.00  0.00
  YS02001895YS02001898    1.00   0.07  0.00  0.00  0.93  0.00  0.01  0.00  0.00  0.00
  YS02001898YS02001901    1.00   0.06  0.00  0.00  0.93  0.00  0.00  0.00  0.02  0.00
  YS02001901YS02001904    1.00   0.06  0.00  0.00  0.94  0.00  0.00  0.00  0.00  0.00
  YS02001904YS02001907    1.00   0.00  0.06  0.00  0.94  0.00  0.00  0.00  0.00  0.00
  YS02001887YS02001890    1.00   0.00  0.00  0.00  0.99  0.00  0.01  0.00  0.00  0.00
  YS02001652YS02001649    1.00   0.00  0.00  0.00  1.00  0.00  0.00  0.00  0.26  0.00
  YS02001655YS02001652    1.00   0.00  0.00  0.00  0.92  0.00  0.00  0.08  0.02  0.00
  YS02001658YS02001655    1.00   0.00  0.06  0.00  0.92  0.03  0.00  0.00  0.68  0.00
  YS02001661YS02001658    1.00   0.06  0.00  0.00  0.00  0.94  0.00  0.00  0.72  0.00
  YS02001664YS02001661    1.00   0.04  0.00  0.00  0.96  0.00  0.00  0.00  0.86  0.00
  YSB1154YSB6556          1.00   0.04  0.00  0.00  0.96  0.00  0.00  0.00  0.02  0.00
  YSB1174YSB1171          1.00   0.03  0.01  0.00  0.96  0.00  0.00  0.00  0.00  0.00
  YSB1171HS02004479       1.00   0.02  0.00  0.00  0.97  0.00  0.00  0.01  0.13  0.00
  HS02004881HS02006253    1.00   0.03  0.00  0.00  0.78  0.01  0.00  0.18  0.55  0.00
  YS02001793JiankangQianchi    1.00   0.00  0.00  0.00  0.21  0.79  0.00  0.00  0.25  0.00
  YS02001757CaochengTiaoxuchi    1.00   0.00  0.09  0.00  0.91  0.00  0.00  0.00  0.00  0.00
  WSF200WS02003060        1.00   0.00  0.05  0.00  0.83  0.12  0.00  0.00  0.50  0.00
  1                       1.00   0.00  0.00  0.00  0.00  1.00  0.00  0.00  0.31  0.00
  2                       1.00   0.77  0.00  0.00  0.00  0.23  0.00  0.00  0.07  0.00
  3                       1.00   0.31  0.00  0.00  0.00  0.69  0.00  0.00  0.34  0.00
  4                       1.00   1.00  0.00  0.00  0.00  0.00  0.00  0.00  0.00  0.00
  
  
  *************************
  Conduit Surcharge Summary
  *************************
  
  ----------------------------------------------------------------------------
                                                           Hours        Hours 
                         --------- Hours Full --------   Above Full   Capacity
  Conduit                Both Ends  Upstream  Dnstream   Normal Flow   Limited
  ----------------------------------------------------------------------------
  WS02006229WS02006228        0.92      1.26      0.92      3.40         0.92
  WS02006256WS02006235        5.55      5.55      6.99      2.03         0.01
  WS02006252WS02006251        0.62      0.62      1.81      1.37         0.01
  WS02006251WS02006249        0.01      0.01      0.01      0.58         0.01
  WS02006249WS02006248        0.01      0.01      0.01      3.81         0.01
  WS02006247WS02006245        0.01      0.01      0.01      4.45         0.01
  WS02006243WS02006242        0.01      0.01      0.38      0.01         0.01
  WS02006242WS02006240        0.01      0.01      0.78      1.84         0.01
  WS02006240WS02006239        0.01      0.01      0.01      0.01         0.01
  WS02006239WS02006238        0.57      0.57      0.65      0.17         0.18
  WS02006238WS02006235        0.46      0.46      0.98      0.01         0.01
  WS02006235WS02006234        0.01      0.01      0.18      5.56         0.01
  WS02006234WS02006232        0.01      0.01      1.04      0.01         0.01
  WS02006232WS02006231        0.01      0.01      1.04      0.01         0.01
  WS02006231WS02006230        0.01      0.01      0.01      5.57         0.01
  WS02006230WS02006229        2.79      3.19      2.79      5.73         2.79
  WS02006228WS02006109        1.07      1.81      1.07      4.63         1.07
  WS02006111WS02006112        0.01      0.01      3.70      0.01         0.01
  WS02006110WS02006113        0.01      0.01      1.55      0.01         0.01
  WS02006109WS02006110        0.01      0.01      1.81      0.01         0.01
  WS02004404WS02004405        0.01      0.01      0.01      5.55         0.01
  WS02003072WS02003073        0.01      0.01      0.01      4.91         0.01
  YS02001759YS02001757        0.01      0.01      0.13      0.01         0.01
  YS02001649YS02001757        0.01      0.01      0.13      0.01         0.01
  YS02001754YS02001757        0.01      0.01      0.13      0.01         0.01
  YS02001793JiankangQianchi        0.01      0.01      0.85      0.01         0.01
  YS02001757CaochengTiaoxuchi        0.01      0.01      0.13      0.01         0.01
  
  
  ***************
  Pumping Summary
  ***************
  
  ---------------------------------------------------------------------------------------------------------
                                                  Min       Avg       Max     Total     Power    % Time Off
                        Percent   Number of      Flow      Flow      Flow    Volume     Usage    Pump Curve
  Pump                 Utilized   Start-Ups       LPS       LPS       LPS  10^6 ltr     Kw-hr    Low   High
  ---------------------------------------------------------------------------------------------------------
  CC-Pump-1               59.57           2      0.00    144.67    200.00     2.355     10.15    0.0  100.0
  CC-Pump-2               52.59           4      0.00    116.87    200.00     1.710      7.57    0.0  100.0
  JK-Pump-1               59.57           6      0.00    104.58    300.00     1.298     24.24    0.0    0.0
  JK-Pump-2               82.96           7      0.00    101.95    299.96     1.804     33.17    0.0    0.0
  XR-Pump-1               91.48           6      0.00     79.13     95.00     1.938     27.50    0.0    0.0
  XR-Pump-2               78.72           6      0.00     77.07     95.00     1.624     23.68    0.0    0.0
  XR-Pump-3               95.73           5      0.00     74.02     95.00     1.995     28.49    0.0    0.0
  XR-Pump-4               80.84           6      0.00     68.77     95.00     1.539     22.13    0.0    0.0
  

  Analysis begun on:  Fri Dec 24 18:41:43 2021
  Analysis ended on:  Fri Dec 24 18:41:46 2021
  Total elapsed time: 00:00:03