
  EPA STORM WATER MANAGEMENT MODEL - VERSION 5.1 (Build 5.3.0.dev0)
  --------------------------------------------------------------

  WARNING 04: minimum elevation drop used for Conduit WS02004404WS02004405
  WARNING 03: negative offset ignored for Link YS02001904YS02001907
  
  *********************************************************
  NOTE: The summary statistics displayed in this report are
  based on results found at every computational time step,  
  not just on results from each reporting time step.
  *********************************************************
  
  ****************
  Analysis Options
  ****************
  Flow Units ............... LPS
  Process Models:
    Rainfall/Runoff ........ YES
    RDII ................... NO
    Snowmelt ............... NO
    Groundwater ............ NO
    Flow Routing ........... YES
    Ponding Allowed ........ NO
    Water Quality .......... NO
  Infiltration Method ...... HORTON
  Flow Routing Method ...... DYNWAVE
  Surcharge Method ......... EXTRAN
  Starting Date ............ 08/28/2015 08:00:00
  Ending Date .............. 08/28/2015 15:50:00
  Antecedent Dry Days ...... 8.0
  Report Time Step ......... 00:01:00
  Wet Time Step ............ 00:01:00
  Dry Time Step ............ 00:01:00
  Routing Time Step ........ 5.00 sec
  Variable Time Step ....... YES
  Maximum Trials ........... 8
  Number of Threads ........ 4
  Head Tolerance ........... 0.001500 m
  
  
  **************************        Volume         Depth
  Runoff Quantity Continuity     hectare-m            mm
  **************************     ---------       -------
  Total Precipitation ......         2.813         6.158
  Evaporation Loss .........         0.000         0.000
  Infiltration Loss ........         0.708         1.549
  Surface Runoff ...........         1.211         2.652
  Final Storage ............         0.894         1.957
  Continuity Error (%) .....        -0.018
  
  
  **************************        Volume        Volume
  Flow Routing Continuity        hectare-m      10^6 ltr
  **************************     ---------     ---------
  Dry Weather Inflow .......         0.616         6.165
  Wet Weather Inflow .......         1.211        12.107
  Groundwater Inflow .......         0.000         0.000
  RDII Inflow ..............         0.000         0.000
  External Inflow ..........         0.102         1.024
  External Outflow .........         1.691        16.909
  Flooding Loss ............         0.027         0.274
  Evaporation Loss .........         0.000         0.000
  Exfiltration Loss ........         0.000         0.000
  Initial Stored Volume ....         0.076         0.761
  Final Stored Volume ......         0.376         3.755
  Continuity Error (%) .....        -4.404
  
  
  *************************
  Highest Continuity Errors
  *************************
  Node HS02004842 (27.70%)
  Node JK-storage (-21.90%)
  Node YS02001884 (21.88%)
  Node YS02001774 (14.70%)
  Node YSB1171 (6.63%)
  
  
  ***************************
  Time-Step Critical Elements
  ***************************
  Link WS02006252WS02006251 (57.64%)
  Link 3 (31.40%)
  Link WS02006238WS02006235 (4.78%)
  Link WS02006280WS02006229 (1.72%)
  
  
  ********************************
  Highest Flow Instability Indexes
  ********************************
  Link WS02006113WS02006111 (41)
  Link WS02006111WS02006112 (21)
  Link YS02006558YS02006561 (15)
  Link YS02006561YS02001783 (8)
  Link YS02001629YS02163301 (6)
  
  
  *************************
  Routing Time Step Summary
  *************************
  Minimum Time Step           :     0.44 sec
  Average Time Step           :     0.87 sec
  Maximum Time Step           :     5.00 sec
  Percent in Steady State     :    -0.00
  Average Iterations per Step :     2.45
  Percent Not Converging      :     5.43
  
  
  ***************************
  Subcatchment Runoff Summary
  ***************************
  
  ------------------------------------------------------------------------------------------------------------------------------
                            Total      Total      Total      Total     Imperv       Perv      Total       Total     Peak  Runoff
                           Precip      Runon       Evap      Infil     Runoff     Runoff     Runoff      Runoff   Runoff   Coeff
  Subcatchment                 mm         mm         mm         mm         mm         mm         mm    10^6 ltr      LPS
  ------------------------------------------------------------------------------------------------------------------------------
  sub0                       6.16       0.00       0.00       0.43       4.46       0.00       4.46        0.00     1.63   0.725
  sub1                       6.16       0.00       0.00       0.68       4.23       0.00       4.23        0.03     8.33   0.686
  sub2                       6.16       0.00       0.00       2.28       2.97       0.00       2.97        0.03     7.33   0.483
  sub3                       6.16       0.00       0.00       2.28       2.94       0.00       2.94        0.07    14.99   0.477
  sub4                       6.16       0.00       0.00       0.68       4.09       0.00       4.09        0.09    16.74   0.664
  sub5                       6.16       0.00       0.00       0.43       4.42       0.00       4.42        0.05    14.82   0.717
  sub7                       6.16       0.00       0.00       0.55       4.35       0.00       4.35        0.01     5.28   0.706
  sub8                       6.16       0.00       0.00       0.55       4.34       0.00       4.34        0.03     9.28   0.705
  sub9                       6.16       0.00       0.00       0.55       4.34       0.00       4.34        0.02     6.88   0.704
  sub10                      6.16       0.00       0.00       0.49       4.37       0.00       4.37        0.05    14.82   0.710
  sub11                      6.16       0.00       0.00       0.49       4.39       0.00       4.39        0.05    17.48   0.713
  sub12                      6.16       0.00       0.00       0.80       4.17       0.00       4.17        0.04    14.98   0.677
  sub14                      6.16       0.00       0.00       0.55       4.34       0.00       4.34        0.04    13.43   0.704
  sub15                      6.16       0.00       0.00       1.85       3.33       0.00       3.33        0.06    18.19   0.541
  sub16                      6.16       0.00       0.00       2.03       3.21       0.00       3.21        0.03    13.11   0.521
  sub17                      6.16       0.00       0.00       1.97       3.25       0.00       3.25        0.03    10.58   0.528
  sub22                      6.16       0.00       0.00       2.65       2.72       0.00       2.72        0.17    59.90   0.442
  sub23                      6.16       0.00       0.00       2.28       3.01       0.00       3.01        0.14    51.08   0.489
  sub60                      6.16       0.00       0.00       0.74       2.96       0.00       2.96        0.90    83.90   0.481
  sub61                      6.16       0.00       0.00       1.05       3.16       0.00       3.16        0.97   105.37   0.513
  sub62                      6.16       0.00       0.00       0.49       3.39       0.00       3.39        1.04   107.63   0.550
  sub63                      6.16       0.00       0.00       1.79       2.81       0.00       2.81        0.85    98.45   0.456
  sub64                      6.16       0.00       0.00       0.92       2.83       0.00       2.83        0.86    79.70   0.459
  sub65                      6.16       0.00       0.00       0.80       2.86       0.00       2.86        0.88    80.88   0.465
  sub66                      6.16       0.00       0.00       1.79       2.47       0.00       2.47        0.76    73.04   0.401
  sub67                      6.16       0.00       0.00       0.49       3.72       0.00       3.72        1.15   138.48   0.603
  sub68                      6.16       0.00       0.00       0.86       3.36       0.00       3.36        1.03   116.57   0.545
  sub69                      6.16       0.00       0.00       0.92       3.61       0.00       3.61        0.84   116.22   0.587
  sub70                      6.16       3.69       0.00       3.35       4.46       0.00       4.46        1.02    93.64   0.453
  sub71                      6.16       0.00       0.00       0.49       3.24       0.00       3.24        0.77    75.09   0.527
  sub72                      6.16       0.00       0.00       0.43       2.30       0.00       2.30        0.47    35.50   0.374
  sub73                      6.16       4.34       0.00       3.57       4.56       0.00       4.56        1.07    80.50   0.434
  sub74                      6.16       0.00       0.00       4.62       1.09       0.00       1.09        0.44    64.97   0.177
  
  
  ******************
  Node Depth Summary
  ******************
  
  ---------------------------------------------------------------------------------
                                 Average  Maximum  Maximum  Time of Max    Reported
                                   Depth    Depth      HGL   Occurrence   Max Depth
  Node                 Type       Meters   Meters   Meters  days hr:min      Meters
  ---------------------------------------------------------------------------------
  WS02001211           JUNCTION     0.64     0.76     5.60     0  03:33        0.76
  WS02001212           JUNCTION     0.37     0.48     5.54     0  02:35        0.48
  WS02001213           JUNCTION     0.61     0.73     5.49     0  02:35        0.73
  WS02003069           JUNCTION     0.43     0.56     5.15     0  02:37        0.56
  WS02003072           JUNCTION     0.50     0.62     5.00     0  02:38        0.62
  WS02003073           JUNCTION     0.30     0.38     4.45     0  02:38        0.38
  WS02003060           JUNCTION     0.38     0.50     5.43     0  02:36        0.50
  WS02003066           JUNCTION     0.23     0.30     5.85     0  02:37        0.30
  WS02003059           JUNCTION     0.67     0.79     5.47     0  02:36        0.79
  WS02003067           JUNCTION     0.57     0.70     6.02     0  02:36        0.70
  WS02004401           JUNCTION     0.67     0.86     6.86     0  02:33        0.85
  WS02004402           JUNCTION     0.70     0.88     6.84     0  02:34        0.88
  WS02004403           JUNCTION     0.72     0.90     6.83     0  02:34        0.90
  WS02004404           JUNCTION     0.79     0.97     6.82     0  02:34        0.97
  WS02004406           JUNCTION     0.80     0.96     6.79     0  02:34        0.96
  WS02004409           JUNCTION     0.49     0.67     6.44     0  02:36        0.67
  WS02004410           JUNCTION     0.51     0.68     6.40     0  02:36        0.68
  WS02004411           JUNCTION     0.52     0.69     6.37     0  02:36        0.69
  WS02004412           JUNCTION     0.54     0.70     6.34     0  02:36        0.70
  WS02004413           JUNCTION     0.70     0.86     6.33     0  02:37        0.86
  WS02004405           JUNCTION     0.79     0.96     6.81     0  02:34        0.96
  WS02006109           JUNCTION     0.75     0.98     7.60     0  02:29        0.98
  WS02006110           JUNCTION     0.75     0.93     7.51     0  02:29        0.93
  WS02006111           JUNCTION     0.22     0.29     7.00     0  02:30        0.29
  WS02006112           JUNCTION     0.84     1.06     6.94     0  02:34        1.05
  WS02006113           JUNCTION     0.34     0.46     7.35     0  02:30        0.46
  WS02006115           JUNCTION     0.56     0.76     6.90     0  02:33        0.76
  WS02006116           JUNCTION     0.64     0.84     6.88     0  02:33        0.83
  WS02006230           JUNCTION     0.72     1.03     7.77     0  02:29        1.03
  WS02006231           JUNCTION     0.48     0.70     7.82     0  02:29        0.70
  WS02006232           JUNCTION     0.62     0.83     7.87     0  02:29        0.83
  WS02006234           JUNCTION     0.53     0.77     7.92     0  02:29        0.77
  WS02006235           JUNCTION     0.57     0.80     7.96     0  02:31        0.80
  WS02006238           JUNCTION     0.59     0.83     7.97     0  02:31        0.83
  WS02006240           JUNCTION     0.49     0.75     8.04     0  02:31        0.75
  WS02006242           JUNCTION     0.55     0.81     8.08     0  02:30        0.81
  WS02006243           JUNCTION     0.43     0.71     8.13     0  02:30        0.71
  WS02006245           JUNCTION     0.41     0.67     8.16     0  02:30        0.67
  WS02006247           JUNCTION     0.43     0.68     8.18     0  02:30        0.68
  WS02006248           JUNCTION     0.38     0.61     8.20     0  02:30        0.61
  WS02006249           JUNCTION     0.41     0.62     8.22     0  02:30        0.62
  WS02006239           JUNCTION     0.55     0.80     8.01     0  02:31        0.80
  WS02006251           JUNCTION     0.40     0.66     8.33     0  02:30        0.65
  WS02006252           JUNCTION     0.36     0.59     8.83     0  05:01        0.58
  WS02006253           JUNCTION     0.43     0.69     8.33     0  02:30        0.68
  WS02006256           JUNCTION     1.00     1.21     8.14     0  03:00        1.21
  WS02004138           JUNCTION     0.14     0.20     7.45     0  00:00        0.19
  WS02004407           JUNCTION     0.22     0.30     6.61     0  02:34        0.30
  WS02006228           JUNCTION     0.75     1.02     7.67     0  02:29        1.02
  WS02006229           JUNCTION     0.72     1.02     7.71     0  02:29        1.02
  WS02006280           JUNCTION     0.06     0.15     8.42     0  02:17        0.15
  WS02006284           JUNCTION     0.35     0.49     8.89     0  02:17        0.49
  WS02006287           JUNCTION     0.08     0.22     9.18     0  02:17        0.22
  WSF200               JUNCTION     0.22     0.31     5.54     0  02:37        0.31
  HS02004901           JUNCTION     0.11     0.24    10.06     0  02:15        0.24
  HS02004881           JUNCTION     0.01     0.03     9.05     0  02:16        0.03
  HS02004876           JUNCTION     0.04     0.10     9.13     0  02:14        0.10
  HS02004870           JUNCTION     0.01     0.04     9.33     0  02:17        0.04
  HS02004862           JUNCTION     0.01     0.05     9.43     0  02:18        0.05
  HS02004856           JUNCTION     0.07     0.11     9.53     0  02:17        0.11
  HS02004852           JUNCTION     0.01     0.03     9.54     0  02:18        0.03
  HS02004848           JUNCTION     0.01     0.03     9.63     0  02:16        0.03
  HS02004842           JUNCTION     0.33     0.36     9.63     0  02:16        0.36
  HS02004837           JUNCTION     0.03     0.05     9.63     0  02:16        0.05
  HS02004830           JUNCTION     0.04     0.06     9.53     0  02:17        0.06
  HS02004824           JUNCTION     0.02     0.04     9.44     0  02:20        0.04
  HS02004817           JUNCTION     0.43     0.53     9.38     0  02:17        0.53
  HS02004807           JUNCTION     0.11     0.21     9.38     0  02:17        0.21
  HS02004802           JUNCTION     0.15     0.25     9.37     0  02:17        0.25
  HS02004799           JUNCTION     0.10     0.27     9.48     0  02:15        0.27
  HS02004792           JUNCTION     0.02     0.10     9.63     0  02:15        0.10
  HS02004788           JUNCTION     0.02     0.08     9.98     0  02:16        0.08
  HS02004785           JUNCTION     0.04     0.14    10.04     0  02:15        0.14
  HS02004777           JUNCTION     0.13     0.26    10.06     0  02:15        0.26
  HS02004770           JUNCTION     0.10     0.23    10.06     0  02:15        0.23
  HS02004480           JUNCTION     0.07     0.21     9.45     0  02:16        0.21
  HS02004479           JUNCTION     0.10     0.25     9.45     0  02:16        0.25
  HS02004478           JUNCTION     0.05     0.13     9.36     0  02:17        0.13
  YS02001745           JUNCTION     0.10     0.27     7.78     0  04:44        0.25
  YS02001748           JUNCTION     0.42     0.68     7.75     0  04:47        0.67
  YS02001751           JUNCTION     0.60     0.91     7.79     0  04:44        0.91
  YS02001754           JUNCTION     0.85     1.18     7.78     0  04:46        1.17
  YS02001762           JUNCTION     1.04     1.52     7.92     0  04:45        1.39
  YS02001765           JUNCTION     1.00     1.51     7.96     0  04:45        1.35
  YS02001767           JUNCTION     0.96     1.52     8.01     0  04:27        1.33
  YS02001770           JUNCTION     0.96     1.60     8.10     0  04:27        1.37
  YS02001774           JUNCTION     1.02     1.70     8.12     0  04:27        1.46
  YS02001779           JUNCTION     0.78     1.46     8.15     0  04:29        1.21
  YS02001882           JUNCTION     0.30     0.48     7.19     0  02:52        0.48
  YS02001884           JUNCTION     0.39     0.58     7.19     0  02:53        0.58
  YS02001759           JUNCTION     1.08     1.50     7.87     0  04:45        1.41
  YS02001887           JUNCTION     0.47     0.66     7.19     0  02:53        0.66
  YS02001890           JUNCTION     0.50     0.69     7.19     0  02:53        0.69
  YS02001898           JUNCTION     0.27     0.44     7.18     0  02:54        0.44
  YS02001901           JUNCTION     0.39     0.57     7.18     0  02:53        0.57
  YS02001904           JUNCTION     0.36     0.54     7.17     0  02:53        0.54
  YS02001907           JUNCTION     0.69     0.89     7.18     0  02:53        0.89
  YS02001910           JUNCTION     0.48     0.67     7.18     0  02:54        0.67
  YS02001915           JUNCTION     0.28     0.46     7.17     0  02:53        0.46
  YS02001918           JUNCTION     0.08     0.11     7.17     0  02:54        0.11
  YS02001619           JUNCTION     0.56     0.82     7.75     0  04:41        0.82
  YS02001629           JUNCTION     0.91     1.22     7.76     0  04:40        1.21
  YS02001641           JUNCTION     1.01     1.40     7.83     0  04:52        1.35
  YS02001644           JUNCTION     1.02     1.40     7.84     0  04:52        1.35
  YS02001652           JUNCTION     0.86     1.21     7.80     0  04:43        1.17
  YS02001655           JUNCTION     0.62     0.95     7.80     0  04:42        0.94
  YS02001920           JUNCTION     0.18     0.21     7.22     0  03:02        0.21
  YS02001923           JUNCTION     0.07     0.09     7.35     0  03:02        0.09
  YS02001926           JUNCTION     0.15     0.18     7.63     0  03:01        0.18
  YS02001929           JUNCTION     0.07     0.09     7.78     0  03:01        0.09
  YS02001658           JUNCTION     0.36     0.62     7.76     0  04:39        0.60
  YS02001661           JUNCTION     0.17     0.37     7.77     0  04:48        0.37
  YS02001664           JUNCTION     0.07     0.12     8.05     0  02:43        0.12
  YS02001622           JUNCTION     0.58     0.83     7.74     0  04:45        0.83
  YS02001633           JUNCTION     1.00     1.34     7.79     0  04:52        1.31
  YS02001649           JUNCTION     1.05     1.41     7.80     0  04:52        1.37
  YS02001757           JUNCTION     1.18     1.54     7.80     0  04:52        1.49
  YS02001895           JUNCTION     0.26     0.44     7.19     0  02:54        0.44
  YS02001625           JUNCTION     0.86     1.15     7.75     0  04:40        1.13
  YS02163301           JUNCTION     0.94     1.26     7.77     0  04:52        1.25
  YS02163601           JUNCTION     1.05     1.42     7.82     0  04:52        1.38
  YS02164001           JUNCTION     0.99     1.37     7.83     0  04:52        1.32
  YS02001647           JUNCTION     0.85     1.22     7.83     0  04:52        1.17
  YSB1154              JUNCTION     0.24     0.40     9.45     0  02:16        0.40
  YSB6556              JUNCTION     0.13     0.29     9.45     0  02:16        0.29
  YSB1174              JUNCTION     0.19     0.35     9.45     0  02:16        0.35
  YSB1171              JUNCTION     0.39     0.55     9.45     0  02:16        0.55
  YS02006553           JUNCTION     0.70     0.89     7.17     0  02:53        0.89
  YS02006561           JUNCTION     0.15     0.24     6.90     0  02:54        0.24
  YS02006556           JUNCTION     0.67     0.86     7.17     0  02:53        0.86
  YS02006558           JUNCTION     0.71     0.90     7.17     0  02:53        0.90
  YS02001783           JUNCTION     0.25     0.43     6.57     0  02:54        0.43
  YS02001784           JUNCTION     0.29     0.45     6.52     0  02:55        0.45
  YS02001786           JUNCTION     0.24     0.38     6.41     0  02:54        0.38
  YS02001788           JUNCTION     0.18     0.29     6.27     0  02:55        0.29
  YS02001790           JUNCTION     0.21     0.35     6.00     0  02:55        0.35
  YS02001791           JUNCTION     0.14     0.23     5.70     0  02:55        0.23
  YS02001793           JUNCTION     0.08     0.15     4.98     0  03:00        0.15
  WS02004139           JUNCTION     0.58     0.71     5.62     0  00:29        0.71
  WSC                  OUTFALL      0.30     0.38     1.05     0  02:39        0.38
  3                    OUTFALL      0.07     0.20     6.20     0  03:00        0.20
  4                    OUTFALL      0.02     0.12     7.12     0  02:30        0.12
  5                    OUTFALL      0.00     0.00     5.00     0  00:00        0.00
  JK-storage           STORAGE      0.24     3.00     3.80     0  00:10        3.00
  CC-storage           STORAGE      0.42     0.70     7.70     0  04:43        0.70
  XR-storage           STORAGE      4.52     7.72     5.72     0  06:27        7.72
  
  
  *******************
  Node Inflow Summary
  *******************
  
  -------------------------------------------------------------------------------------------------
                                  Maximum  Maximum                  Lateral       Total        Flow
                                  Lateral    Total  Time of Max      Inflow      Inflow     Balance
                                   Inflow   Inflow   Occurrence      Volume      Volume       Error
  Node                 Type           LPS      LPS  days hr:min    10^6 ltr    10^6 ltr     Percent
  -------------------------------------------------------------------------------------------------
  WS02001211           JUNCTION      7.35   387.67     0  00:23       0.207        6.81       0.497
  WS02001212           JUNCTION      0.00   387.67     0  00:30           0        6.78       0.293
  WS02001213           JUNCTION      0.00   387.67     0  00:30           0        6.76       0.360
  WS02003069           JUNCTION      0.32   891.72     0  02:37     0.00902        14.1       0.188
  WS02003072           JUNCTION      0.00   891.51     0  02:37           0        14.1       0.238
  WS02003073           JUNCTION      1.82   893.32     0  02:38      0.0514        14.1       0.263
  WS02003060           JUNCTION     16.53   891.40     0  02:36       0.466        14.1       0.181
  WS02003066           JUNCTION      0.00   538.03     0  02:37           0        6.96       0.052
  WS02003059           JUNCTION      0.00   387.73     0  00:20           0        6.74       0.517
  WS02003067           JUNCTION      0.00   537.96     0  02:37           0        6.97       0.114
  WS02004401           JUNCTION      0.00   544.35     0  02:33           0        7.17       0.270
  WS02004402           JUNCTION      0.00   543.85     0  02:33           0        7.15       0.257
  WS02004403           JUNCTION      0.00   543.38     0  02:34           0        7.14       0.236
  WS02004404           JUNCTION      0.16   543.34     0  02:34     0.00457        7.12       0.180
  WS02004406           JUNCTION      0.00   543.44     0  02:34           0        7.09       0.440
  WS02004409           JUNCTION      0.00   543.09     0  02:34           0        7.06       0.184
  WS02004410           JUNCTION      0.00   540.77     0  02:35           0        7.04       0.210
  WS02004411           JUNCTION      0.00   539.24     0  02:35           0        7.03       0.219
  WS02004412           JUNCTION      0.00   538.42     0  02:36           0        7.01       0.242
  WS02004413           JUNCTION      0.00   537.97     0  02:36           0           7       0.369
  WS02004405           JUNCTION      0.04   543.41     0  02:34     0.00107        7.11       0.270
  WS02006109           JUNCTION      1.23   545.63     0  02:30      0.0347        7.26       0.253
  WS02006110           JUNCTION      0.00   545.66     0  02:30           0        7.24       0.276
  WS02006111           JUNCTION      0.00   566.13     0  02:29           0        7.21       0.053
  WS02006112           JUNCTION     10.58   557.07     0  02:30      0.0279        7.24       0.385
  WS02006113           JUNCTION      0.00   546.29     0  02:29           0        7.22       0.126
  WS02006115           JUNCTION      0.00   553.17     0  02:30           0        7.21       0.255
  WS02006116           JUNCTION      0.00   546.40     0  02:30           0        7.19       0.221
  WS02006230           JUNCTION     10.28   396.35     0  04:55        0.29        6.31       0.204
  WS02006231           JUNCTION      0.00   386.85     0  04:52           0        6.03       0.149
  WS02006232           JUNCTION      0.00   387.12     0  04:52           0        6.05       0.251
  WS02006234           JUNCTION      0.00   388.52     0  04:52           0        6.06       0.119
  WS02006235           JUNCTION      0.00   388.32     0  04:52           0         6.1       0.170
  WS02006238           JUNCTION      0.00   343.89     0  05:10           0        4.28       0.166
  WS02006240           JUNCTION      0.00   337.88     0  05:10           0        4.27       0.255
  WS02006242           JUNCTION      0.00   335.83     0  05:41           0        4.27       0.321
  WS02006243           JUNCTION      0.00   340.00     0  05:41           0        4.26      -0.069
  WS02006245           JUNCTION      0.00   342.14     0  05:40           0        4.27       0.236
  WS02006247           JUNCTION      0.00   344.70     0  05:40           0        4.27       0.157
  WS02006248           JUNCTION      0.00   347.24     0  05:40           0        4.28       0.064
  WS02006249           JUNCTION      0.00   430.03     0  02:30           0         4.6       0.258
  WS02006239           JUNCTION      0.00   341.96     0  05:10           0        4.27       0.224
  WS02006251           JUNCTION      0.08   431.40     0  02:30     0.00217        4.63       0.189
  WS02006252           JUNCTION      0.00   400.00     0  04:50           0        4.46       0.010
  WS02006253           JUNCTION      1.63    46.45     0  02:16     0.00361       0.181       2.093
  WS02006256           JUNCTION      0.00   599.94     0  03:00           0        4.39       0.056
  WS02004138           JUNCTION      0.00   380.00     0  00:00           0        6.64       0.089
  WS02004407           JUNCTION      0.00   543.21     0  02:34           0        7.06       0.087
  WS02006228           JUNCTION      0.00   544.39     0  02:30           0        7.24       0.188
  WS02006229           JUNCTION      0.00   543.98     0  02:29           0        7.25       0.171
  WS02006280           JUNCTION      0.00   236.26     0  02:17           0       0.948       0.007
  WS02006284           JUNCTION      0.10   236.24     0  02:17      0.0027       0.949       0.111
  WS02006287           JUNCTION      0.00   236.12     0  02:17           0       0.947       0.077
  WSF200               JUNCTION      0.00   538.05     0  02:37           0        6.96       0.045
  HS02004901           JUNCTION     13.11    13.11     0  02:09      0.0336      0.0337       5.501
  HS02004881           JUNCTION      5.28    45.21     0  02:16      0.0146       0.155       0.200
  HS02004876           JUNCTION      8.33    40.29     0  02:17      0.0281        0.14       0.378
  HS02004870           JUNCTION      9.28    32.14     0  02:16      0.0277       0.112       0.095
  HS02004862           JUNCTION      7.53    23.50     0  02:17      0.0333      0.0849       0.200
  HS02004856           JUNCTION      6.88    16.03     0  02:16      0.0208       0.053       2.779
  HS02004852           JUNCTION      0.00     9.61     0  02:16           0      0.0322       0.159
  HS02004848           JUNCTION     14.99    14.99     0  02:19      0.0661      0.0661       0.066
  HS02004842           JUNCTION      0.00     5.94     0  02:29           0      0.0469      38.321
  HS02004837           JUNCTION     21.17    26.12     0  02:16       0.227       0.261       0.311
  HS02004830           JUNCTION      0.15    26.25     0  02:16     0.00423       0.252       0.492
  HS02004824           JUNCTION     16.79    42.82     0  02:20      0.0866       0.337       0.160
  HS02004817           JUNCTION      0.60    43.41     0  02:20      0.0169       0.353       4.950
  HS02004807           JUNCTION     17.48    59.27     0  02:18       0.051       0.388       1.102
  HS02004802           JUNCTION      0.00    59.63     0  02:20           0       0.383       1.069
  HS02004799           JUNCTION     13.43   150.92     0  02:15      0.0412       0.496       0.458
  HS02004792           JUNCTION     60.18   137.81     0  02:14        0.18       0.455       0.090
  HS02004788           JUNCTION     19.86    80.20     0  02:15       0.104       0.277       0.140
  HS02004785           JUNCTION      0.15    60.78     0  02:14     0.00423       0.174       0.279
  HS02004777           JUNCTION      0.03    61.25     0  02:13    0.000846       0.175       3.056
  HS02004770           JUNCTION     51.08    62.62     0  02:11       0.143       0.175       1.796
  HS02004480           JUNCTION      0.00   177.84     0  02:16           0        0.58       0.128
  HS02004479           JUNCTION      0.00    27.60     0  02:17           0       0.096       0.766
  HS02004478           JUNCTION      0.00   236.11     0  02:17           0       0.948       0.066
  YS02001745           JUNCTION     83.91    96.25     0  04:52       0.897       0.903       0.107
  YS02001748           JUNCTION      0.04   149.64     0  04:44     0.00127       0.938       0.602
  YS02001751           JUNCTION      0.01   203.74     0  04:46     0.00031       0.928       1.492
  YS02001754           JUNCTION      0.26   112.15     0  03:09     0.00733       0.889       2.101
  YS02001762           JUNCTION      0.00   132.79     0  02:36           0       0.983       2.156
  YS02001765           JUNCTION      0.00   134.10     0  02:36           0       0.984       2.450
  YS02001767           JUNCTION      0.54   130.63     0  02:48      0.0151           1       3.458
  YS02001770           JUNCTION    107.79   130.39     0  02:47        1.04        1.11       2.552
  YS02001774           JUNCTION      0.00    53.01     0  04:26           0       0.167      17.239
  YS02001779           JUNCTION      0.01    53.15     0  04:26    0.000141      0.0771      17.388
  YS02001882           JUNCTION      0.00     4.67     0  02:07           0     0.00578      42.142
  YS02001884           JUNCTION      0.00    13.58     0  02:07           0      0.0226      28.014
  YS02001759           JUNCTION    105.41   223.34     0  02:50       0.974        1.92       1.193
  YS02001887           JUNCTION    138.93   139.11     0  02:42        1.16        1.17       0.623
  YS02001890           JUNCTION      0.00   139.08     0  02:41           0        1.15       0.697
  YS02001898           JUNCTION      0.00   138.65     0  02:44           0        1.13       0.198
  YS02001901           JUNCTION      0.00   138.60     0  02:44           0        1.13       0.497
  YS02001904           JUNCTION      0.00   137.58     0  02:43           0        1.13       0.462
  YS02001907           JUNCTION      0.00   249.95     0  02:55           0        2.43       0.921
  YS02001910           JUNCTION      0.00   114.56     0  02:54           0        1.31       0.791
  YS02001915           JUNCTION     75.11   113.50     0  03:00       0.766        1.31       0.356
  YS02001918           JUNCTION      0.00    38.39     0  03:02           0       0.547       0.215
  YS02001619           JUNCTION     73.04    73.04     0  02:57       0.756       0.756       0.824
  YS02001629           JUNCTION      0.00   118.12     0  04:53           0       0.716       2.626
  YS02001641           JUNCTION      0.00   167.32     0  02:59           0         1.5       1.370
  YS02001644           JUNCTION     79.74   252.75     0  02:59       0.861        2.33       1.099
  YS02001652           JUNCTION      0.00   127.44     0  02:55           0        0.84       1.997
  YS02001655           JUNCTION      0.15   182.52     0  04:40     0.00434       0.896       1.704
  YS02001920           JUNCTION      2.87    38.38     0  03:02      0.0809       0.549       0.385
  YS02001923           JUNCTION      0.04    35.51     0  03:01     0.00106       0.469       0.067
  YS02001926           JUNCTION      0.05    35.54     0  03:01     0.00147        0.47       0.480
  YS02001929           JUNCTION     35.50    35.50     0  03:01       0.469       0.469       0.066
  YS02001658           JUNCTION      0.00   198.09     0  04:50           0       0.958       0.616
  YS02001661           JUNCTION      0.00   145.18     0  04:49           0       0.913       0.090
  YS02001664           JUNCTION     98.45    98.45     0  02:43        0.85        0.85       0.018
  YS02001622           JUNCTION      0.00    88.91     0  02:58           0       0.767       2.378
  YS02001633           JUNCTION     81.08   175.09     0  02:58       0.886        1.56       2.004
  YS02001649           JUNCTION      0.00   349.63     0  03:01           0        3.09       1.194
  YS02001757           JUNCTION      0.00   620.78     0  03:01           0        5.78       1.617
  YS02001895           JUNCTION      0.00   138.32     0  02:42           0        1.14       0.340
  YS02001625           JUNCTION      0.00   117.33     0  04:56           0       0.763       4.560
  YS02163301           JUNCTION      0.00    96.09     0  03:00           0       0.695       3.307
  YS02163601           JUNCTION      0.11   172.33     0  02:59      0.0031        1.52       1.981
  YS02164001           JUNCTION      0.00   167.52     0  02:59           0         1.5       1.244
  YS02001647           JUNCTION      0.00   257.70     0  02:59           0        2.29       0.993
  YSB1154              JUNCTION     14.82    14.82     0  02:14        0.05      0.0514       2.889
  YSB6556              JUNCTION      0.00    14.72     0  02:15           0      0.0524       2.435
  YSB1174              JUNCTION     14.98    14.98     0  02:09      0.0364      0.0374       3.553
  YSB1171              JUNCTION      0.00    27.52     0  02:15           0      0.0954       7.098
  YS02006553           JUNCTION      0.00   249.86     0  02:55           0        2.42       0.597
  YS02006561           JUNCTION      0.00   374.97     0  02:53           0        3.42       0.019
  YS02006556           JUNCTION      0.00   249.80     0  02:55           0        2.42       0.431
  YS02006558           JUNCTION    117.45   365.63     0  02:54        1.06        3.45       0.134
  YS02001783           JUNCTION      0.00   365.43     0  02:54           0        3.42       0.046
  YS02001784           JUNCTION      1.06   366.40     0  02:55      0.0299        3.45       0.076
  YS02001786           JUNCTION      0.06   366.41     0  02:55     0.00159        3.45       0.074
  YS02001788           JUNCTION      0.07   366.49     0  02:55       0.002        3.45       0.043
  YS02001790           JUNCTION      0.15   366.69     0  02:55     0.00437        3.45       0.053
  YS02001791           JUNCTION      0.00   366.62     0  02:55           0        3.45       0.027
  YS02001793           JUNCTION      0.00   367.34     0  03:00           0        3.45       0.010
  WS02004139           JUNCTION      0.32   394.45     0  00:00     0.00905        6.64       0.597
  WSC                  OUTFALL       0.00   893.37     0  02:39           0        14.1       0.000
  3                    OUTFALL       0.00   507.66     0  03:00           0        2.54       0.000
  4                    OUTFALL       0.00   148.57     0  02:30           0       0.313       0.000
  5                    OUTFALL       0.00     0.00     0  00:00           0           0       0.000 ltr
  JK-storage           STORAGE       0.00   368.23     0  03:00           0         3.6     -17.968
  CC-storage           STORAGE       0.00   620.66     0  03:01           0        5.69       0.419
  XR-storage           STORAGE     335.95   335.95     0  02:53        7.15        7.75      -0.679
  
  
  **********************
  Node Surcharge Summary
  **********************
  
  Surcharging occurs when water rises above the top of the highest conduit.
  ---------------------------------------------------------------------
                                               Max. Height   Min. Depth
                                   Hours       Above Crown    Below Rim
  Node                 Type      Surcharged         Meters       Meters
  ---------------------------------------------------------------------
  WS02006109           JUNCTION        1.69          0.160        1.660
  WS02006110           JUNCTION        0.15          0.018        1.832
  WS02006112           JUNCTION        0.24          0.058        1.622
  WS02006232           JUNCTION        1.85          0.130        1.350
  WS02006234           JUNCTION        0.22          0.048        1.192
  WS02006235           JUNCTION        0.81          0.089        1.201
  WS02006238           JUNCTION        1.31          0.107        1.323
  WS02006240           JUNCTION        0.19          0.039        1.351
  WS02006242           JUNCTION        0.82          0.085        0.735
  WS02006239           JUNCTION        0.29          0.058        1.232
  WS02006252           JUNCTION        2.05          0.190        0.910
  WS02006228           JUNCTION        1.43          0.191        2.009
  YS02001754           JUNCTION        0.61          0.126        1.024
  YS02001762           JUNCTION        5.22          0.516        0.634
  YS02001765           JUNCTION        4.91          0.510        0.590
  YS02001767           JUNCTION        3.63          0.523        0.507
  YS02001770           JUNCTION        2.60          0.571        0.349
  YS02001774           JUNCTION        5.19          0.696        0.354
  YS02001779           JUNCTION        0.30          0.461        0.219
  YS02001759           JUNCTION        5.27          0.502        0.708
  YS02001641           JUNCTION        5.17          0.395        0.705
  YS02001644           JUNCTION        5.17          0.404        0.516
  YS02001652           JUNCTION        1.12          0.177        0.953
  YS02001633           JUNCTION        3.97          0.318        0.742
  YS02001649           JUNCTION        5.23          0.411        0.639
  YS02001757           JUNCTION        5.38          0.539        0.671
  YS02001625           JUNCTION        1.64          0.146        0.634
  YS02163301           JUNCTION        3.10          0.257        0.773
  YS02163601           JUNCTION        5.23          0.418        0.662
  YS02164001           JUNCTION        4.63          0.369        0.731
  YS02001647           JUNCTION        1.50          0.224        0.676
  
  
  *********************
  Node Flooding Summary
  *********************
  
  Flooding refers to all water that overflows a node, whether it ponds or not.
  --------------------------------------------------------------------------
                                                             Total   Maximum
                                 Maximum   Time of Max       Flood    Ponded
                        Hours       Rate    Occurrence      Volume     Depth
  Node                 Flooded       LPS   days hr:min    10^6 ltr    Meters
  --------------------------------------------------------------------------
  XR-storage              0.89    236.74      0  06:50       0.274     0.000
  
  
  **********************
  Storage Volume Summary
  **********************
  
  --------------------------------------------------------------------------------------------------
                         Average     Avg  Evap Exfil       Maximum     Max    Time of Max    Maximum
                          Volume    Pcnt  Pcnt  Pcnt        Volume    Pcnt     Occurrence    Outflow
  Storage Unit           1000 m3    Full  Loss  Loss       1000 m3    Full    days hr:min        LPS
  --------------------------------------------------------------------------------------------------
  JK-storage               0.012       4     0     0         0.151      52       0  00:10     599.94
  CC-storage               1.159       7     0     0         1.951      12       0  04:43     400.00
  XR-storage               0.542      59     0     0         0.926     100       0  06:27     380.00
  
  
  ***********************
  Outfall Loading Summary
  ***********************
  
  -----------------------------------------------------------
                         Flow       Avg       Max       Total
                         Freq      Flow      Flow      Volume
  Outfall Node           Pcnt       LPS       LPS    10^6 ltr
  -----------------------------------------------------------
  WSC                  100.00    566.26    893.37      14.059
  3                     72.59    178.15    507.66       2.537
  4                     33.41     43.02    148.57       0.313
  5                      0.00      0.00      0.00       0.000
  -----------------------------------------------------------
  System                51.50    787.43   1280.16      16.909
  
  
  ********************
  Link Flow Summary
  ********************
  
  -----------------------------------------------------------------------------
                                 Maximum  Time of Max   Maximum    Max/    Max/
                                  |Flow|   Occurrence   |Veloc|    Full    Full
  Link                 Type          LPS  days hr:min     m/sec    Flow   Depth
  -----------------------------------------------------------------------------
  WS02003066WSF200     CONDUIT    538.05     0  02:37      2.74    0.09    0.23
  WS02006287WS02006284 CONDUIT    236.14     0  02:17      1.70    0.11    0.23
  WS02006284WS02006280 CONDUIT    236.26     0  02:17      1.94    0.10    0.21
  WS02006280WS02006229 CONDUIT    236.26     0  02:17      3.12    0.05    0.15
  WS02006229WS02006228 CONDUIT    544.39     0  02:30      1.08    1.80    1.00
  WS02006256WS02006235 CONDUIT    154.39     0  02:12      2.23    1.63    1.00
  WS02006253WS02006251 CONDUIT     49.48     0  02:38      0.51    0.15    0.95
  WS02006252WS02006251 CONDUIT    400.53     0  05:07      3.19    1.47    1.00
  WS02006251WS02006249 CONDUIT    430.03     0  02:30      1.17    1.24    0.91
  WS02006249WS02006248 CONDUIT    347.24     0  05:40      1.11    1.90    0.87
  WS02006248WS02006247 CONDUIT    344.70     0  05:40      1.08    0.75    0.92
  WS02006247WS02006245 CONDUIT    342.14     0  05:40      1.05    2.71    0.96
  WS02006245WS02006243 CONDUIT    340.00     0  05:41      1.07    1.01    0.98
  WS02006243WS02006242 CONDUIT    335.83     0  05:41      0.97    0.72    1.00
  WS02006242WS02006240 CONDUIT    337.88     0  05:10      0.93    1.34    1.00
  WS02006240WS02006239 CONDUIT    341.96     0  05:10      0.98    1.08    1.00
  WS02006239WS02006238 CONDUIT    343.89     0  05:10      0.91    1.10    1.00
  WS02006238WS02006235 CONDUIT    343.69     0  05:10      0.91    0.77    1.00
  WS02006235WS02006234 CONDUIT    388.52     0  04:52      1.04    4.10    1.00
  WS02006234WS02006232 CONDUIT    387.12     0  04:52      1.01    0.78    1.00
  WS02006232WS02006231 CONDUIT    386.85     0  04:52      1.05    0.81    0.99
  WS02006231WS02006230 CONDUIT    386.07     0  04:55      1.35    5.86    0.96
  WS02006230WS02006229 CONDUIT    396.30     0  04:56      1.03    8.82    1.00
  WS02006228WS02006109 CONDUIT    544.40     0  02:30      1.08    2.38    1.00
  WS02006116WS02004401 CONDUIT    544.35     0  02:33      0.80    0.75    0.85
  WS02006115WS02006116 CONDUIT    546.40     0  02:30      0.92    0.70    0.77
  WS02006113WS02006111 CONDUIT    566.13     0  02:29      2.47    0.68    0.47
  WS02006112WS02006115 CONDUIT    553.17     0  02:30      0.77    0.33    0.87
  WS02006111WS02006112 CONDUIT    550.99     0  02:30      1.53    0.26    0.67
  WS02006110WS02006113 CONDUIT    546.29     0  02:29      1.29    0.50    0.79
  WS02006109WS02006110 CONDUIT    545.66     0  02:30      1.09    1.05    1.00
  WS02004411WS02004412 CONDUIT    538.42     0  02:36      0.93    0.76    0.69
  WS02004401WS02004402 CONDUIT    543.85     0  02:33      0.83    0.65    0.87
  WS02004413WS02003067 CONDUIT    537.96     0  02:37      1.11    0.23    0.59
  WS02004412WS02004413 CONDUIT    537.97     0  02:36      0.82    0.36    0.78
  WS02004410WS02004411 CONDUIT    539.24     0  02:35      0.94    0.74    0.69
  WS02004409WS02004410 CONDUIT    540.77     0  02:35      0.97    0.70    0.67
  WS02004407WS02004409 CONDUIT    543.09     0  02:34      1.47    0.19    0.48
  WS02004406WS02004407 CONDUIT    543.21     0  02:34      1.05    0.24    0.63
  WS02004405WS02004406 CONDUIT    543.44     0  02:34      0.77    1.07    0.96
  WS02004404WS02004405 CONDUIT    543.38     0  02:34      0.97    5.32    0.96
  WS02004403WS02004404 CONDUIT    543.18     0  02:34      0.85    0.39    0.93
  WS02004402WS02004403 CONDUIT    543.38     0  02:34      0.85    0.78    0.89
  WS02004139WS02001211 CONDUIT    380.32     0  00:23      0.90    0.48    0.57
  WS02004138WS02004139 CONDUIT    394.13     0  00:00      3.62    0.08    0.42
  WS02003067WS02003066 CONDUIT    538.03     0  02:37      1.21    0.17    0.42
  WS02001213WS02003059 CONDUIT    387.73     0  00:20      0.89    0.64    0.75
  WS02001212WS02001213 CONDUIT    387.67     0  00:30      1.32    0.60    0.44
  WS02001211WS02001212 CONDUIT    387.67     0  00:30      0.78    0.30    0.62
  WS02003072WS02003073 CONDUIT    891.50     0  02:38      1.70    1.93    0.47
  WS02003069WS02003072 CONDUIT    891.51     0  02:37      1.60    0.43    0.50
  WS02003060WS02003069 CONDUIT    891.40     0  02:37      1.84    0.35    0.44
  WS02003059WS02003060 CONDUIT    387.70     0  00:22      0.95    0.25    0.64
  HS02004901HS02004770 CONDUIT     12.02     0  02:14      0.05    0.05    0.34
  HS02004876HS02004881 CONDUIT     40.39     0  02:17      0.62    0.43    0.09
  HS02004870HS02004876 CONDUIT     32.11     0  02:17      0.43    0.02    0.11
  HS02004842HS02004848 CONDUIT      5.94     0  02:29      0.03    0.00    0.28
  HS02004837HS02004842 CONDUIT      6.16     0  02:30      0.42    0.00    0.29
  HS02004830HS02004837 CONDUIT     26.10     0  02:16      0.46    0.03    0.08
  HS02004824HS02004830 CONDUIT     26.24     0  02:17      0.50    0.03    0.07
  HS02004817HS02004824 CONDUIT     42.81     0  02:20      0.17    0.02    0.41
  HS02004770HS02004777 CONDUIT     61.22     0  02:13      0.25    0.11    0.35
  HS02004799HS02004480 CONDUIT    150.66     0  02:15      0.64    0.19    0.34
  HS02004792HS02004799 CONDUIT    137.73     0  02:15      0.73    0.08    0.27
  HS02004788HS02004792 CONDUIT     80.12     0  02:16      0.88    0.05    0.13
  HS02004785HS02004788 CONDUIT     60.68     0  02:15      0.55    0.46    0.16
  HS02004777HS02004785 CONDUIT     60.63     0  02:14      0.30    0.07    0.29
  HS02004480HS02004478 CONDUIT    177.80     0  02:16      1.02    0.75    0.25
  HS02004479HS02004480 CONDUIT     27.84     0  02:18      0.15    0.03    0.33
  HS02004862HS02004870 CONDUIT     23.46     0  02:18      0.50    0.03    0.07
  HS02004848HS02004852 CONDUIT      9.61     0  02:16      0.33    0.01    0.04
  HS02004856HS02004862 CONDUIT     16.00     0  02:17      0.37    0.02    0.06
  HS02004852HS02004856 CONDUIT      9.57     0  02:18      0.14    0.01    0.10
  HS02004802HS02004478 CONDUIT     60.12     0  02:20      0.32    0.05    0.27
  HS02004478WS02006287 CONDUIT    236.12     0  02:17      1.39    0.07    0.19
  HS02004817HS02004807 CONDUIT     44.09     0  02:21      0.12    0.03    0.53
  HS02004807HS02004802 CONDUIT     59.63     0  02:20      0.27    0.11    0.32
  YS02001759YS02001757 CONDUIT    224.63     0  02:50      0.29    0.16    1.00
  YS02001762YS02001759 CONDUIT    119.09     0  02:36      0.17    0.14    1.00
  YS02001765YS02001762 CONDUIT    132.79     0  02:36      0.23    0.12    1.00
  YS02001770YS02001767 CONDUIT    130.10     0  02:48      0.37    0.52    1.00
  YS02001774YS02001770 CONDUIT     53.01     0  04:26      0.13    0.03    1.00
  YS02001779YS02001774 CONDUIT     53.14     0  04:26      0.08    0.03    1.00
  YS02001649YS02001757 CONDUIT    350.25     0  03:01      0.45    0.21    1.00
  YS02001767YS02001765 CONDUIT    134.10     0  02:36      0.26    0.17    1.00
  YS02006561YS02001783 CONDUIT    365.43     0  02:54      1.86    0.19    0.41
  YS02001783YS02001784 CONDUIT    365.34     0  02:55      1.30    0.50    0.55
  YS02001784YS02001785 CONDUIT    366.35     0  02:55      1.38    0.85    0.52
  YS02001788YS02001790 CONDUIT    366.53     0  02:55      1.95    0.27    0.40
  YS02001790YS02001791 CONDUIT    366.62     0  02:55      2.26    0.40    0.36
  YS02001791YS02001793 CONDUIT    367.34     0  03:00      4.60    0.16    0.23
  YS02001910YS02001907 CONDUIT    114.64     0  03:01      0.49    0.06    0.77
  YS02001786YS02001788 CONDUIT    366.42     0  02:55      1.83    0.71    0.42
  YS02001915YS02001910 CONDUIT    114.56     0  02:54      0.44    0.06    0.56
  YS02001918YS02001915 CONDUIT     39.03     0  03:03      0.44    0.02    0.28
  YS02001923YS02001920 CONDUIT     35.51     0  03:02      0.48    0.02    0.15
  YS02001926YS02001923 CONDUIT     35.47     0  03:01      0.52    0.05    0.14
  YS02001929YS02001926 CONDUIT     35.49     0  03:01      0.55    0.02    0.14
  YS02001920YS02001918 CONDUIT     38.39     0  03:02      0.49    0.04    0.16
  YS02001629YS02163301 CONDUIT     96.09     0  03:00      0.12    0.12    1.00
  YS02001619YS02001622 CONDUIT     88.91     0  02:58      0.69    0.13    0.83
  YS02001622YS02001625 CONDUIT    117.33     0  04:56      0.27    0.06    0.92
  YS02001625YS02001629 CONDUIT    118.12     0  04:53      0.27    0.06    0.92
  YS02163301YS02001633 CONDUIT     94.09     0  02:58      0.12    0.09    1.00
  YS02163601YS02164001 CONDUIT    167.52     0  02:59      0.21    0.15    1.00
  YS02164001YS02001641 CONDUIT    167.32     0  02:59      0.21    0.23    1.00
  YS02001641YS02001644 CONDUIT    173.03     0  02:59      0.22    0.56    1.00
  YS02001647YS02001649 CONDUIT    268.61     0  03:03      0.35    0.14    1.00
  YS02006553YS02006556 CONDUIT    249.80     0  02:55      0.35    0.21    0.85
  YS02006556YS02006558 CONDUIT    250.13     0  02:57      0.34    0.20    0.88
  YSB6556YSB1171       CONDUIT     15.05     0  02:18      0.06    0.02    0.60
  YS02001907YS02006553 CONDUIT    249.86     0  02:55      0.29    0.29    0.97
  YS02006558YS02006561 CONDUIT    374.97     0  02:53      2.46    0.83    0.53
  YS02001633YS02163601 CONDUIT    172.22     0  02:59      0.22    0.18    1.00
  YS02001644YS02001647 CONDUIT    257.70     0  02:59      0.33    0.15    1.00
  YS02001745YS02001748 CONDUIT    149.60     0  04:44      1.45    0.06    0.42
  YS02001748YS02001751 CONDUIT    203.73     0  04:46      1.13    0.10    0.76
  YS02001751YS02001754 CONDUIT    111.89     0  03:09      1.01    0.05    0.95
  YS02001754YS02001757 CONDUIT    108.04     0  02:42      0.33    0.04    1.00
  YS02001882YS02001884 CONDUIT      4.67     0  02:07      0.06    0.01    0.50
  YS02001884YS02001887 CONDUIT     13.58     0  02:07      0.07    0.02    0.59
  YS02001890YS02001895 CONDUIT    138.32     0  02:42      0.31    0.06    0.56
  YS02001895YS02001898 CONDUIT    138.65     0  02:44      0.51    0.24    0.43
  YS02001898YS02001901 CONDUIT    138.60     0  02:44      0.35    0.09    0.50
  YS02001901YS02001904 CONDUIT    137.58     0  02:43      0.31    0.21    0.56
  YS02001904YS02001907 CONDUIT    137.79     0  02:44      0.23    0.05    0.71
  YS02001887YS02001890 CONDUIT    139.08     0  02:41      0.26    0.24    0.65
  YS02001652YS02001649 CONDUIT    138.21     0  02:55      0.37    0.07    1.00
  YS02001655YS02001652 CONDUIT    127.44     0  02:55      1.08    0.06    0.98
  YS02001658YS02001655 CONDUIT    169.07     0  04:40      1.30    0.07    0.77
  YS02001661YS02001658 CONDUIT    198.09     0  04:50      1.50    0.08    0.42
  YS02001664YS02001661 CONDUIT     98.44     0  02:43      1.19    0.03    0.22
  YSB1154YSB6556       CONDUIT     14.72     0  02:15      0.19    0.03    0.49
  YSB1174YSB1171       CONDUIT     13.73     0  02:11      0.06    0.02    0.60
  YSB1171HS02004479    CONDUIT     27.60     0  02:17      0.54    0.02    0.47
  HS02004881HS02006253 CONDUIT     45.21     0  02:16      1.76    0.01    0.26
  YS02001793JiankangQianchi CONDUIT    368.23     0  03:00     13.87    0.03    0.56
  YS02001757CaochengTiaoxuchi CONDUIT    620.66     0  03:01      1.31    0.27    0.85
  WSF200WS02003060     CONDUIT    538.02     0  02:37      1.86    0.12    0.34
  1                    CONDUIT    893.37     0  02:39      3.23    0.31    0.38
  2                    CONDUIT    148.57     0  02:30      5.40    0.36    0.41
  3                    CONDUIT    507.66     0  03:00      9.82    0.81    0.69
  4                    CONDUIT      0.00     0  00:00      0.00    0.00    0.00
  CC-Pump-1            PUMP       200.00     0  03:30              1.00
  CC-Pump-2            PUMP       200.00     0  02:20              1.00
  JK-Pump-1            PUMP       300.00     0  00:20              1.00
  JK-Pump-2            PUMP       300.00     0  02:27              1.00
  XR-Pump-1            PUMP        95.00     0  00:00              1.00
  XR-Pump-2            PUMP        95.00     0  00:00              1.00
  XR-Pump-3            PUMP        95.00     0  00:00              1.00
  XR-Pump-4            PUMP        95.00     0  00:00              1.00
  
  
  ***************************
  Flow Classification Summary
  ***************************
  
  -------------------------------------------------------------------------------------
                      Adjusted    ---------- Fraction of Time in Flow Class ---------- 
                       /Actual         Up    Down  Sub   Sup   Up    Down  Norm  Inlet 
  Conduit               Length    Dry  Dry   Dry   Crit  Crit  Crit  Crit  Ltd   Ctrl  
  -------------------------------------------------------------------------------------
  WS02003066WSF200        1.00   0.01  0.04  0.00  0.00  0.95  0.00  0.00  0.76  0.00
  WS02006287WS02006284    1.00   0.04  0.01  0.00  0.67  0.28  0.00  0.00  0.77  0.00
  WS02006284WS02006280    1.00   0.04  0.00  0.00  0.00  0.00  0.00  0.96  0.00  0.00
  WS02006280WS02006229    1.00   0.04  0.00  0.00  0.00  0.00  0.00  0.96  0.00  0.00
  WS02006229WS02006228    1.00   0.00  0.00  0.00  1.00  0.00  0.00  0.00  0.00  0.00
  WS02006256WS02006235    1.00   0.00  0.00  0.00  0.99  0.00  0.00  0.00  0.00  0.00
  WS02006253WS02006251    1.00   0.03  0.02  0.00  0.96  0.00  0.00  0.00  0.00  0.00
  WS02006252WS02006251    1.00   0.08  0.00  0.00  0.00  0.00  0.92  0.00  0.00  0.00
  WS02006251WS02006249    1.00   0.00  0.00  0.00  1.00  0.00  0.00  0.00  0.27  0.00
  WS02006249WS02006248    1.00   0.00  0.00  0.00  0.89  0.00  0.10  0.00  0.00  0.00
  WS02006248WS02006247    1.00   0.00  0.00  0.00  0.98  0.00  0.00  0.02  0.18  0.00
  WS02006247WS02006245    1.00   0.00  0.00  0.00  0.98  0.00  0.00  0.01  0.00  0.00
  WS02006245WS02006243    1.00   0.01  0.00  0.00  0.95  0.00  0.00  0.04  0.01  0.00
  WS02006243WS02006242    1.00   0.01  0.00  0.00  0.99  0.00  0.00  0.00  0.23  0.00
  WS02006242WS02006240    1.00   0.01  0.00  0.00  0.99  0.00  0.00  0.00  0.00  0.00
  WS02006240WS02006239    1.00   0.00  0.00  0.00  0.96  0.00  0.00  0.04  0.01  0.00
  WS02006239WS02006238    1.00   0.00  0.00  0.00  1.00  0.00  0.00  0.00  0.00  0.00
  WS02006238WS02006235    1.00   0.00  0.00  0.00  1.00  0.00  0.00  0.00  0.00  0.00
  WS02006235WS02006234    1.00   0.00  0.00  0.00  0.96  0.00  0.04  0.00  0.00  0.00
  WS02006234WS02006232    1.00   0.00  0.00  0.00  1.00  0.00  0.00  0.00  0.09  0.00
  WS02006232WS02006231    1.00   0.00  0.00  0.00  0.99  0.00  0.00  0.00  0.00  0.00
  WS02006231WS02006230    1.00   0.01  0.00  0.00  0.58  0.00  0.42  0.00  0.00  0.00
  WS02006230WS02006229    1.00   0.00  0.00  0.00  0.99  0.00  0.00  0.01  0.01  0.00
  WS02006228WS02006109    1.00   0.00  0.00  0.00  1.00  0.00  0.00  0.00  0.00  0.00
  WS02006116WS02004401    1.00   0.03  0.00  0.00  0.97  0.00  0.00  0.00  0.00  0.00
  WS02006115WS02006116    1.00   0.02  0.00  0.00  0.97  0.00  0.00  0.01  0.00  0.00
  WS02006113WS02006111    1.00   0.01  0.00  0.00  0.00  0.99  0.00  0.00  0.12  0.00
  WS02006112WS02006115    1.00   0.02  0.01  0.00  0.97  0.00  0.00  0.00  0.00  0.00
  WS02006111WS02006112    1.00   0.02  0.00  0.00  0.98  0.00  0.00  0.00  0.95  0.00
  WS02006110WS02006113    1.00   0.00  0.01  0.00  0.99  0.00  0.00  0.00  0.00  0.00
  WS02006109WS02006110    1.00   0.00  0.00  0.00  1.00  0.00  0.00  0.00  0.00  0.00
  WS02004411WS02004412    1.00   0.04  0.00  0.00  0.96  0.00  0.00  0.00  0.00  0.00
  WS02004401WS02004402    1.00   0.03  0.00  0.00  0.97  0.00  0.00  0.00  0.00  0.00
  WS02004413WS02003067    1.00   0.04  0.01  0.00  0.00  0.00  0.95  0.00  0.00  0.00
  WS02004412WS02004413    1.00   0.04  0.00  0.00  0.96  0.00  0.00  0.00  0.01  0.00
  WS02004410WS02004411    1.00   0.04  0.00  0.00  0.96  0.00  0.00  0.00  0.01  0.00
  WS02004409WS02004410    1.00   0.04  0.00  0.00  0.96  0.00  0.00  0.00  0.03  0.00
  WS02004407WS02004409    1.00   0.03  0.00  0.00  0.96  0.00  0.00  0.00  0.91  0.00
  WS02004406WS02004407    1.00   0.00  0.03  0.00  0.97  0.00  0.00  0.00  0.00  0.00
  WS02004405WS02004406    1.00   0.00  0.00  0.00  1.00  0.00  0.00  0.00  0.03  0.00
  WS02004404WS02004405    1.00   0.00  0.00  0.00  1.00  0.00  0.00  0.00  0.00  0.00
  WS02004403WS02004404    1.00   0.00  0.03  0.00  0.97  0.00  0.00  0.00  0.00  0.00
  WS02004402WS02004403    1.00   0.03  0.00  0.00  0.97  0.00  0.00  0.00  0.00  0.00
  WS02004139WS02001211    1.00   0.00  0.00  0.00  1.00  0.00  0.00  0.00  0.00  0.00
  WS02004138WS02004139    1.00   0.00  0.00  0.00  1.00  0.00  0.00  0.00  1.00  0.00
  WS02003067WS02003066    1.00   0.05  0.00  0.00  0.95  0.00  0.00  0.00  0.00  0.00
  WS02001213WS02003059    1.00   0.00  0.00  0.00  1.00  0.00  0.00  0.00  0.00  0.00
  WS02001212WS02001213    1.00   0.00  0.00  0.00  0.83  0.00  0.17  0.00  0.00  0.00
  WS02001211WS02001212    1.00   0.00  0.00  0.00  1.00  0.00  0.00  0.00  0.00  0.00
  WS02003072WS02003073    1.00   0.00  0.00  0.00  0.00  0.00  0.00  1.00  0.00  0.00
  WS02003069WS02003072    1.00   0.00  0.00  0.00  1.00  0.00  0.00  0.00  0.24  0.00
  WS02003060WS02003069    1.00   0.00  0.00  0.00  1.00  0.00  0.00  0.00  0.10  0.00
  WS02003059WS02003060    1.00   0.00  0.00  0.00  1.00  0.00  0.00  0.00  0.00  0.00
  HS02004901HS02004770    1.00   0.04  0.00  0.00  0.96  0.00  0.00  0.00  0.03  0.00
  HS02004876HS02004881    1.00   0.00  0.00  0.00  1.00  0.00  0.00  0.00  0.00  0.00
  HS02004870HS02004876    1.00   0.00  0.00  0.00  1.00  0.00  0.00  0.00  0.95  0.00
  HS02004842HS02004848    1.00   0.00  0.04  0.00  0.96  0.00  0.00  0.00  0.68  0.00
  HS02004837HS02004842    1.00   0.00  0.00  0.00  1.00  0.00  0.00  0.00  0.11  0.00
  HS02004830HS02004837    1.00   0.00  0.00  0.00  1.00  0.00  0.00  0.00  0.99  0.00
  HS02004824HS02004830    1.00   0.00  0.00  0.00  1.00  0.00  0.00  0.00  0.00  0.00
  HS02004817HS02004824    1.00   0.00  0.00  0.00  1.00  0.00  0.00  0.00  1.00  0.00
  HS02004770HS02004777    1.00   0.00  0.04  0.00  0.96  0.00  0.00  0.00  0.07  0.00
  HS02004799HS02004480    1.00   0.00  0.01  0.00  0.94  0.00  0.05  0.00  0.00  0.00
  HS02004792HS02004799    1.00   0.00  0.00  0.00  1.00  0.00  0.00  0.00  0.98  0.00
  HS02004788HS02004792    1.00   0.00  0.00  0.00  1.00  0.00  0.00  0.00  0.98  0.00
  HS02004785HS02004788    1.00   0.00  0.00  0.00  1.00  0.00  0.00  0.00  0.00  0.00
  HS02004777HS02004785    1.00   0.00  0.00  0.00  1.00  0.00  0.00  0.00  0.21  0.00
  HS02004480HS02004478    1.00   0.05  0.00  0.00  0.72  0.00  0.00  0.23  0.00  0.00
  HS02004479HS02004480    1.00   0.01  0.00  0.00  0.99  0.00  0.00  0.00  0.16  0.00
  HS02004862HS02004870    1.00   0.00  0.00  0.00  1.00  0.00  0.00  0.00  0.05  0.00
  HS02004848HS02004852    1.00   0.04  0.00  0.00  0.96  0.00  0.00  0.00  0.71  0.00
  HS02004856HS02004862    1.00   0.00  0.07  0.00  0.93  0.00  0.00  0.00  0.74  0.00
  HS02004852HS02004856    1.00   0.04  0.01  0.00  0.95  0.00  0.00  0.00  0.82  0.00
  HS02004802HS02004478    1.00   0.04  0.01  0.00  0.95  0.00  0.00  0.00  0.00  0.00
  HS02004478WS02006287    1.00   0.05  0.00  0.00  0.85  0.09  0.00  0.00  0.76  0.00
  HS02004817HS02004807    1.00   0.00  0.04  0.00  0.96  0.00  0.00  0.00  0.00  0.00
  HS02004807HS02004802    1.00   0.04  0.00  0.00  0.95  0.00  0.00  0.00  0.01  0.00
  YS02001759YS02001757    1.00   0.00  0.00  0.00  1.00  0.00  0.00  0.00  0.17  0.00
  YS02001762YS02001759    1.00   0.00  0.00  0.00  1.00  0.00  0.00  0.00  0.05  0.00
  YS02001765YS02001762    1.00   0.00  0.00  0.00  1.00  0.00  0.00  0.00  0.22  0.00
  YS02001770YS02001767    1.00   0.00  0.00  0.00  1.00  0.00  0.00  0.00  0.00  0.00
  YS02001774YS02001770    1.00   0.00  0.05  0.00  0.95  0.00  0.00  0.00  0.06  0.00
  YS02001779YS02001774    1.00   0.00  0.00  0.00  1.00  0.00  0.00  0.00  0.26  0.00
  YS02001649YS02001757    1.00   0.00  0.00  0.00  1.00  0.00  0.00  0.00  0.19  0.00
  YS02001767YS02001765    1.00   0.00  0.00  0.00  1.00  0.00  0.00  0.00  0.01  0.00
  YS02006561YS02001783    1.00   0.07  0.00  0.00  0.00  0.93  0.00  0.00  0.70  0.00
  YS02001783YS02001784    1.00   0.00  0.07  0.00  0.93  0.00  0.00  0.00  0.00  0.00
  YS02001784YS02001785    1.00   0.00  0.00  0.00  1.00  0.00  0.00  0.00  0.25  0.00
  YS02001788YS02001790    1.00   0.00  0.00  0.00  0.07  0.93  0.00  0.00  0.75  0.00
  YS02001790YS02001791    1.00   0.00  0.00  0.00  0.00  1.00  0.00  0.00  0.57  0.00
  YS02001791YS02001793    1.00   0.00  0.00  0.00  0.00  1.00  0.00  0.00  0.00  0.00
  YS02001910YS02001907    1.00   0.00  0.00  0.00  0.99  0.00  0.00  0.00  0.13  0.00
  YS02001786YS02001788    1.00   0.00  0.00  0.00  0.07  0.93  0.00  0.00  0.00  0.00
  YS02001915YS02001910    1.00   0.00  0.00  0.00  1.00  0.00  0.00  0.00  0.24  0.00
  YS02001918YS02001915    1.00   0.00  0.00  0.00  1.00  0.00  0.00  0.00  0.75  0.00
  YS02001923YS02001920    1.00   0.00  0.00  0.00  1.00  0.00  0.00  0.00  1.00  0.00
  YS02001926YS02001923    1.00   0.00  0.03  0.00  0.00  0.00  0.97  0.00  0.00  0.00
  YS02001929YS02001926    1.00   0.00  0.04  0.00  0.96  0.00  0.00  0.00  0.86  0.00
  YS02001920YS02001918    1.00   0.00  0.00  0.00  1.00  0.00  0.00  0.00  0.00  0.00
  YS02001629YS02163301    1.00   0.06  0.00  0.00  0.94  0.00  0.00  0.00  0.00  0.00
  YS02001619YS02001622    1.00   0.04  0.00  0.00  0.96  0.00  0.00  0.00  0.00  0.00
  YS02001622YS02001625    1.00   0.04  0.00  0.00  0.96  0.00  0.00  0.00  0.13  0.00
  YS02001625YS02001629    1.00   0.04  0.02  0.00  0.91  0.00  0.02  0.00  0.00  0.00
  YS02163301YS02001633    1.00   0.00  0.06  0.00  0.94  0.00  0.00  0.00  0.00  0.00
  YS02163601YS02164001    1.00   0.00  0.03  0.00  0.97  0.00  0.00  0.00  0.00  0.00
  YS02164001YS02001641    1.00   0.00  0.03  0.00  0.97  0.00  0.00  0.00  0.07  0.00
  YS02001641YS02001644    1.00   0.00  0.00  0.00  1.00  0.00  0.00  0.00  0.00  0.00
  YS02001647YS02001649    1.00   0.00  0.07  0.00  0.93  0.00  0.00  0.00  0.01  0.00
  YS02006553YS02006556    1.00   0.00  0.00  0.00  1.00  0.00  0.00  0.00  0.03  0.00
  YS02006556YS02006558    1.00   0.00  0.00  0.00  1.00  0.00  0.00  0.00  0.00  0.00
  YSB6556YSB1171          1.00   0.01  0.03  0.00  0.96  0.00  0.00  0.00  0.00  0.00
  YS02001907YS02006553    1.00   0.00  0.00  0.00  1.00  0.00  0.00  0.00  0.00  0.00
  YS02006558YS02006561    1.00   0.07  0.00  0.00  0.00  0.93  0.00  0.00  0.67  0.00
  YS02001633YS02163601    1.00   0.00  0.00  0.00  1.00  0.00  0.00  0.00  0.20  0.00
  YS02001644YS02001647    1.00   0.00  0.07  0.00  0.93  0.00  0.00  0.00  0.00  0.00
  YS02001745YS02001748    1.00   0.00  0.00  0.00  0.86  0.02  0.00  0.12  0.49  0.00
  YS02001748YS02001751    1.00   0.00  0.00  0.00  0.97  0.03  0.00  0.00  0.24  0.00
  YS02001751YS02001754    1.00   0.00  0.00  0.00  0.93  0.00  0.00  0.07  0.01  0.00
  YS02001754YS02001757    1.00   0.00  0.00  0.00  1.00  0.00  0.00  0.00  0.26  0.00
  YS02001882YS02001884    1.00   0.06  0.00  0.00  0.94  0.00  0.00  0.00  0.00  0.00
  YS02001884YS02001887    1.00   0.03  0.01  0.00  0.96  0.00  0.00  0.00  0.00  0.00
  YS02001890YS02001895    1.00   0.00  0.06  0.00  0.94  0.00  0.00  0.00  0.00  0.00
  YS02001895YS02001898    1.00   0.06  0.00  0.00  0.93  0.00  0.01  0.00  0.00  0.00
  YS02001898YS02001901    1.00   0.06  0.00  0.00  0.94  0.00  0.00  0.00  0.02  0.00
  YS02001901YS02001904    1.00   0.06  0.00  0.00  0.94  0.00  0.00  0.00  0.00  0.00
  YS02001904YS02001907    1.00   0.00  0.06  0.00  0.94  0.00  0.00  0.00  0.00  0.00
  YS02001887YS02001890    1.00   0.00  0.00  0.00  0.99  0.00  0.01  0.00  0.00  0.00
  YS02001652YS02001649    1.00   0.00  0.00  0.00  1.00  0.00  0.00  0.00  0.26  0.00
  YS02001655YS02001652    1.00   0.00  0.00  0.00  0.93  0.00  0.00  0.07  0.02  0.00
  YS02001658YS02001655    1.00   0.00  0.05  0.00  0.92  0.03  0.00  0.00  0.09  0.00
  YS02001661YS02001658    1.00   0.05  0.00  0.00  0.86  0.08  0.00  0.00  0.45  0.00
  YS02001664YS02001661    1.00   0.04  0.00  0.00  0.70  0.25  0.00  0.00  0.86  0.00
  YSB1154YSB6556          1.00   0.04  0.00  0.00  0.96  0.00  0.00  0.00  0.02  0.00
  YSB1174YSB1171          1.00   0.03  0.01  0.00  0.96  0.00  0.00  0.00  0.00  0.00
  YSB1171HS02004479       1.00   0.01  0.00  0.00  0.97  0.00  0.00  0.02  0.13  0.00
  HS02004881HS02006253    1.00   0.02  0.00  0.00  0.76  0.02  0.00  0.20  0.57  0.00
  YS02001793JiankangQianchi    1.00   0.00  0.00  0.00  0.21  0.79  0.00  0.00  0.33  0.00
  YS02001757CaochengTiaoxuchi    1.00   0.00  0.08  0.00  0.92  0.00  0.00  0.00  0.00  0.00
  WSF200WS02003060        1.00   0.00  0.01  0.00  0.70  0.29  0.00  0.00  0.37  0.00
  1                       1.00   0.00  0.00  0.00  0.00  1.00  0.00  0.00  0.45  0.00
  2                       1.00   0.66  0.00  0.00  0.00  0.34  0.00  0.00  0.10  0.00
  3                       1.00   0.27  0.00  0.00  0.00  0.73  0.00  0.00  0.36  0.00
  4                       1.00   1.00  0.00  0.00  0.00  0.00  0.00  0.00  0.00  0.00
  
  
  *************************
  Conduit Surcharge Summary
  *************************
  
  ----------------------------------------------------------------------------
                                                           Hours        Hours 
                         --------- Hours Full --------   Above Full   Capacity
  Conduit                Both Ends  Upstream  Dnstream   Normal Flow   Limited
  ----------------------------------------------------------------------------
  WS02006229WS02006228        1.43      1.92      1.43      3.72         1.43
  WS02006256WS02006235        5.75      5.76      7.03      2.20         0.01
  WS02006252WS02006251        0.95      0.95      2.05      1.77         0.01
  WS02006251WS02006249        0.01      0.01      0.01      0.99         0.01
  WS02006249WS02006248        0.01      0.01      0.01      4.07         0.01
  WS02006247WS02006245        0.01      0.01      0.01      4.56         0.01
  WS02006245WS02006243        0.01      0.01      0.01      0.02         0.01
  WS02006243WS02006242        0.03      0.03      0.82      0.01         0.01
  WS02006242WS02006240        0.19      0.19      1.39      2.12         0.01
  WS02006240WS02006239        0.23      0.23      0.28      0.07         0.01
  WS02006239WS02006238        1.12      1.12      1.31      0.16         0.13
  WS02006238WS02006235        1.03      1.03      1.71      0.01         0.01
  WS02006235WS02006234        0.22      0.22      0.81      5.78         0.01
  WS02006234WS02006232        0.34      0.34      1.85      0.01         0.01
  WS02006232WS02006231        0.01      0.01      1.85      0.01         0.01
  WS02006231WS02006230        0.01      0.01      0.01      5.79         0.01
  WS02006230WS02006229        2.98      3.35      2.98      5.88         2.98
  WS02006228WS02006109        1.69      2.62      1.69      4.96         1.69
  WS02006112WS02006115        0.01      0.01      0.24      0.01         0.01
  WS02006111WS02006112        0.01      0.01      3.94      0.01         0.01
  WS02006110WS02006113        0.01      0.01      2.30      0.01         0.01
  WS02006109WS02006110        0.15      0.15      2.61      0.15         0.01
  WS02004405WS02004406        0.01      0.01      0.01      0.20         0.01
  WS02004404WS02004405        0.01      0.01      0.01      5.63         0.01
  WS02003072WS02003073        0.01      0.01      0.01      4.36         0.01
  YS02001759YS02001757        5.27      5.27      5.38      0.01         0.01
  YS02001762YS02001759        5.22      5.22      5.27      0.01         0.01
  YS02001765YS02001762        4.91      4.91      5.22      0.01         0.01
  YS02001770YS02001767        3.58      3.59      3.63      0.01         0.40
  YS02001774YS02001770        2.60      2.60      5.19      0.01         0.01
  YS02001779YS02001774        0.31      0.31      5.19      0.01         0.01
  YS02001649YS02001757        5.23      5.23      5.38      0.01         0.01
  YS02001767YS02001765        3.63      3.63      4.91      0.01         0.01
  YS02001629YS02163301        2.20      2.20      3.10      0.01         0.01
  YS02001622YS02001625        0.01      0.01      1.64      0.01         0.01
  YS02001625YS02001629        0.01      0.01      1.64      0.01         0.01
  YS02163301YS02001633        3.10      3.10      4.80      0.01         0.01
  YS02163601YS02164001        4.63      4.63      5.23      0.01         0.01
  YS02164001YS02001641        4.63      4.63      5.17      0.01         0.01
  YS02001641YS02001644        5.17      5.17      5.17      0.01         0.37
  YS02001647YS02001649        1.50      1.50      5.23      0.01         0.01
  YS02001633YS02163601        3.97      3.97      5.23      0.01         0.01
  YS02001644YS02001647        1.50      1.50      5.17      0.01         0.01
  YS02001751YS02001754        0.01      0.01      0.61      0.01         0.01
  YS02001754YS02001757        1.55      1.55      5.38      0.01         0.01
  YS02001652YS02001649        1.71      1.71      5.23      0.01         0.01
  YS02001655YS02001652        0.01      0.01      1.12      0.01         0.01
  YS02001793JiankangQianchi        0.01      0.01      0.70      0.01         0.01
  YS02001757CaochengTiaoxuchi        0.01      0.01      5.38      0.01         0.01
  
  
  ***************
  Pumping Summary
  ***************
  
  ---------------------------------------------------------------------------------------------------------
                                                  Min       Avg       Max     Total     Power    % Time Off
                        Percent   Number of      Flow      Flow      Flow    Volume     Usage    Pump Curve
  Pump                 Utilized   Start-Ups       LPS       LPS       LPS  10^6 ltr     Kw-hr    Low   High
  ---------------------------------------------------------------------------------------------------------
  CC-Pump-1               55.31           7      0.00    133.52    200.00     2.100      6.81    0.0   15.4
  CC-Pump-2               53.97           5      0.00    157.84    200.00     2.355      7.91    0.0   21.5
  JK-Pump-1               72.34           7      0.00    168.87    300.00     2.499     46.64    0.0    0.0
  JK-Pump-2               70.19           8      0.00    121.41    300.00     1.888     36.43    0.0    0.0
  XR-Pump-1               70.22           9      0.00     59.83     95.00     1.197     17.22    0.0    0.0
  XR-Pump-2               87.23           8      0.00     65.22     95.00     1.710     26.42    0.0    0.0
  XR-Pump-3               89.34           8      0.00     69.57     95.00     1.824     29.08    0.0    0.0
  XR-Pump-4               89.35           7      0.00     71.87     95.00     1.910     32.11    0.0    0.0
  

  Analysis begun on:  Fri Dec 24 13:20:30 2021
  Analysis ended on:  Fri Dec 24 13:20:33 2021
  Total elapsed time: 00:00:03