
  EPA STORM WATER MANAGEMENT MODEL - VERSION 5.1 (Build 5.3.0.dev0)
  --------------------------------------------------------------

  WARNING 04: minimum elevation drop used for Conduit WS02004404WS02004405
  WARNING 03: negative offset ignored for Link YS02001904YS02001907
  
  *********************************************************
  NOTE: The summary statistics displayed in this report are
  based on results found at every computational time step,  
  not just on results from each reporting time step.
  *********************************************************
  
  ****************
  Analysis Options
  ****************
  Flow Units ............... LPS
  Process Models:
    Rainfall/Runoff ........ YES
    RDII ................... NO
    Snowmelt ............... NO
    Groundwater ............ NO
    Flow Routing ........... YES
    Ponding Allowed ........ NO
    Water Quality .......... NO
  Infiltration Method ...... HORTON
  Flow Routing Method ...... DYNWAVE
  Surcharge Method ......... EXTRAN
  Starting Date ............ 08/28/2015 08:00:00
  Ending Date .............. 08/28/2015 15:50:00
  Antecedent Dry Days ...... 8.0
  Report Time Step ......... 00:01:00
  Wet Time Step ............ 00:01:00
  Dry Time Step ............ 00:01:00
  Routing Time Step ........ 5.00 sec
  Variable Time Step ....... YES
  Maximum Trials ........... 8
  Number of Threads ........ 4
  Head Tolerance ........... 0.001500 m
  
  
  **************************        Volume         Depth
  Runoff Quantity Continuity     hectare-m            mm
  **************************     ---------       -------
  Total Precipitation ......         3.868         8.469
  Evaporation Loss .........         0.000         0.000
  Infiltration Loss ........         0.985         2.157
  Surface Runoff ...........         1.916         4.194
  Final Storage ............         0.968         2.119
  Continuity Error (%) .....        -0.017
  
  
  **************************        Volume        Volume
  Flow Routing Continuity        hectare-m      10^6 ltr
  **************************     ---------     ---------
  Dry Weather Inflow .......         0.616         6.165
  Wet Weather Inflow .......         1.915        19.148
  Groundwater Inflow .......         0.000         0.000
  RDII Inflow ..............         0.000         0.000
  External Inflow ..........         0.102         1.024
  External Outflow .........         1.827        18.268
  Flooding Loss ............         0.281         2.811
  Evaporation Loss .........         0.000         0.000
  Exfiltration Loss ........         0.000         0.000
  Initial Stored Volume ....         0.076         0.761
  Final Stored Volume ......         0.614         6.142
  Continuity Error (%) .....        -0.460
  
  
  *************************
  Highest Continuity Errors
  *************************
  Node YS02001774 (43.01%)
  Node HS02004842 (20.90%)
  Node YS02001884 (13.55%)
  Node YSB1171 (4.66%)
  Node HS02004817 (3.83%)
  
  
  ***************************
  Time-Step Critical Elements
  ***************************
  Link WS02006252WS02006251 (74.91%)
  Link 3 (19.09%)
  Link WS02006280WS02006229 (1.44%)
  Link WS02006238WS02006235 (1.09%)
  
  
  ********************************
  Highest Flow Instability Indexes
  ********************************
  Link WS02006113WS02006111 (40)
  Link YS02001779YS02001774 (32)
  Link YS02001774YS02001770 (31)
  Link WS02006111WS02006112 (28)
  Link YS02001765YS02001762 (26)
  
  
  *************************
  Routing Time Step Summary
  *************************
  Minimum Time Step           :     0.50 sec
  Average Time Step           :     0.83 sec
  Maximum Time Step           :     5.00 sec
  Percent in Steady State     :    -0.00
  Average Iterations per Step :     4.17
  Percent Not Converging      :    20.14
  
  
  ***************************
  Subcatchment Runoff Summary
  ***************************
  
  ------------------------------------------------------------------------------------------------------------------------------
                            Total      Total      Total      Total     Imperv       Perv      Total       Total     Peak  Runoff
                           Precip      Runon       Evap      Infil     Runoff     Runoff     Runoff      Runoff   Runoff   Coeff
  Subcatchment                 mm         mm         mm         mm         mm         mm         mm    10^6 ltr      LPS
  ------------------------------------------------------------------------------------------------------------------------------
  sub0                       8.47       0.00       0.00       0.59       6.61       0.00       6.61        0.01     1.03   0.781
  sub1                       8.47       0.00       0.00       0.93       6.28       0.00       6.28        0.04     7.43   0.741
  sub2                       8.47       0.00       0.00       3.13       4.43       0.00       4.43        0.04     7.08   0.523
  sub3                       8.47       0.00       0.00       3.13       4.39       0.00       4.39        0.10    15.91   0.518
  sub4                       8.47       0.00       0.00       0.93       6.13       0.00       6.13        0.13    19.23   0.724
  sub5                       8.47       0.00       0.00       0.59       6.56       0.00       6.56        0.07    13.22   0.775
  sub7                       8.47       0.00       0.00       0.76       6.45       0.00       6.45        0.02     4.04   0.762
  sub8                       8.47       0.00       0.00       0.76       6.44       0.00       6.44        0.04     7.54   0.761
  sub9                       8.47       0.00       0.00       0.76       6.44       0.00       6.44        0.03     5.65   0.760
  sub10                      8.47       0.00       0.00       0.68       6.50       0.00       6.50        0.07    12.87   0.767
  sub11                      8.47       0.00       0.00       0.68       6.52       0.00       6.52        0.08    13.93   0.769
  sub12                      8.47       0.00       0.00       1.10       6.18       0.00       6.18        0.05    10.23   0.730
  sub14                      8.47       0.00       0.00       0.76       6.44       0.00       6.44        0.06    11.15   0.760
  sub15                      8.47       0.00       0.00       2.54       4.95       0.00       4.95        0.09    15.40   0.584
  sub16                      8.47       0.00       0.00       2.79       4.76       0.00       4.76        0.05     9.37   0.561
  sub17                      8.47       0.00       0.00       2.71       4.82       0.00       4.82        0.04     7.75   0.570
  sub22                      8.47       0.00       0.00       3.64       4.04       0.00       4.04        0.26    47.08   0.477
  sub23                      8.47       0.00       0.00       3.13       4.46       0.00       4.46        0.21    39.46   0.527
  sub60                      8.47       0.00       0.00       1.02       4.75       0.00       4.75        1.44   149.28   0.561
  sub61                      8.47       0.00       0.00       1.44       4.95       0.00       4.95        1.53   180.35   0.585
  sub62                      8.47       0.00       0.00       0.68       5.35       0.00       5.35        1.64   187.08   0.631
  sub63                      8.47       0.00       0.00       2.46       4.37       0.00       4.37        1.32   164.01   0.516
  sub64                      8.47       0.00       0.00       1.27       4.55       0.00       4.55        1.38   141.99   0.537
  sub65                      8.47       0.00       0.00       1.10       4.62       0.00       4.62        1.42   144.28   0.545
  sub66                      8.47       0.00       0.00       2.46       3.94       0.00       3.94        1.21   129.20   0.465
  sub67                      8.47       0.00       0.00       0.68       5.75       0.00       5.75        1.78   226.25   0.679
  sub68                      8.47       0.00       0.00       1.19       5.24       0.00       5.24        1.61   196.27   0.618
  sub69                      8.47       0.00       0.00       1.27       5.53       0.00       5.53        1.29   176.57   0.653
  sub70                      8.47       5.64       0.00       4.80       7.11       0.00       7.11        1.63   167.69   0.504
  sub71                      8.47       0.00       0.00       0.68       5.16       0.00       5.16        1.22   132.38   0.610
  sub72                      8.47       0.00       0.00       0.59       3.87       0.00       3.87        0.79    64.98   0.457
  sub73                      8.47       6.92       0.00       5.23       7.51       0.00       7.51        1.76   149.38   0.488
  sub74                      8.47       0.00       0.00       6.35       1.66       0.00       1.66        0.66    93.55   0.196
  
  
  ******************
  Node Depth Summary
  ******************
  
  ---------------------------------------------------------------------------------
                                 Average  Maximum  Maximum  Time of Max    Reported
                                   Depth    Depth      HGL   Occurrence   Max Depth
  Node                 Type       Meters   Meters   Meters  days hr:min      Meters
  ---------------------------------------------------------------------------------
  WS02001211           JUNCTION     0.68     0.72     5.56     0  02:50        0.72
  WS02001212           JUNCTION     0.40     0.44     5.51     0  02:50        0.44
  WS02001213           JUNCTION     0.63     0.70     5.46     0  02:50        0.70
  WS02003069           JUNCTION     0.45     0.54     5.13     0  02:49        0.54
  WS02003072           JUNCTION     0.52     0.60     4.97     0  02:50        0.60
  WS02003073           JUNCTION     0.31     0.37     4.43     0  02:50        0.37
  WS02003060           JUNCTION     0.40     0.48     5.41     0  02:49        0.48
  WS02003066           JUNCTION     0.24     0.30     5.85     0  02:37        0.30
  WS02003059           JUNCTION     0.69     0.76     5.45     0  02:50        0.76
  WS02003067           JUNCTION     0.58     0.70     6.02     0  02:36        0.70
  WS02004401           JUNCTION     0.68     0.85     6.85     0  02:34        0.85
  WS02004402           JUNCTION     0.71     0.87     6.83     0  02:34        0.87
  WS02004403           JUNCTION     0.73     0.89     6.82     0  02:34        0.89
  WS02004404           JUNCTION     0.81     0.96     6.81     0  02:34        0.96
  WS02004406           JUNCTION     0.81     0.95     6.78     0  02:34        0.95
  WS02004409           JUNCTION     0.50     0.66     6.43     0  02:35        0.66
  WS02004410           JUNCTION     0.52     0.68     6.40     0  02:35        0.68
  WS02004411           JUNCTION     0.54     0.69     6.37     0  02:36        0.69
  WS02004412           JUNCTION     0.55     0.70     6.34     0  02:36        0.70
  WS02004413           JUNCTION     0.71     0.85     6.32     0  02:36        0.85
  WS02004405           JUNCTION     0.80     0.95     6.80     0  02:34        0.95
  WS02006109           JUNCTION     0.76     0.96     7.58     0  02:30        0.96
  WS02006110           JUNCTION     0.75     0.91     7.50     0  02:30        0.91
  WS02006111           JUNCTION     0.22     0.28     6.99     0  02:31        0.28
  WS02006112           JUNCTION     0.85     1.05     6.94     0  02:36        1.05
  WS02006113           JUNCTION     0.35     0.45     7.34     0  02:31        0.45
  WS02006115           JUNCTION     0.57     0.75     6.89     0  02:34        0.75
  WS02006116           JUNCTION     0.65     0.83     6.87     0  02:33        0.83
  WS02006230           JUNCTION     0.73     0.99     7.74     0  02:31        0.99
  WS02006231           JUNCTION     0.48     0.66     7.78     0  02:32        0.66
  WS02006232           JUNCTION     0.62     0.78     7.82     0  02:33        0.78
  WS02006234           JUNCTION     0.54     0.71     7.87     0  02:34        0.71
  WS02006235           JUNCTION     0.57     0.74     7.90     0  02:34        0.74
  WS02006238           JUNCTION     0.59     0.76     7.91     0  02:34        0.76
  WS02006240           JUNCTION     0.48     0.66     7.95     0  02:35        0.66
  WS02006242           JUNCTION     0.54     0.71     7.98     0  02:35        0.71
  WS02006243           JUNCTION     0.41     0.58     8.00     0  02:35        0.58
  WS02006245           JUNCTION     0.39     0.55     8.03     0  02:35        0.55
  WS02006247           JUNCTION     0.41     0.55     8.05     0  02:36        0.55
  WS02006248           JUNCTION     0.36     0.48     8.07     0  02:36        0.48
  WS02006249           JUNCTION     0.39     0.50     8.10     0  02:36        0.50
  WS02006239           JUNCTION     0.54     0.72     7.93     0  02:34        0.72
  WS02006251           JUNCTION     0.38     0.47     8.14     0  02:36        0.47
  WS02006252           JUNCTION     0.32     0.35     8.59     0  02:01        0.35
  WS02006253           JUNCTION     0.40     0.50     8.15     0  02:36        0.50
  WS02006256           JUNCTION     1.03     1.15     8.08     0  00:00        1.12
  WS02004138           JUNCTION     0.16     0.17     7.42     0  00:00        0.17
  WS02004407           JUNCTION     0.23     0.29     6.61     0  02:35        0.29
  WS02006228           JUNCTION     0.76     1.00     7.65     0  02:30        1.00
  WS02006229           JUNCTION     0.73     0.99     7.69     0  02:30        0.99
  WS02006280           JUNCTION     0.06     0.14     8.41     0  02:27        0.14
  WS02006284           JUNCTION     0.36     0.48     8.88     0  02:27        0.48
  WS02006287           JUNCTION     0.09     0.21     9.16     0  02:27        0.21
  WSF200               JUNCTION     0.22     0.31     5.54     0  02:42        0.31
  HS02004901           JUNCTION     0.12     0.22    10.04     0  02:25        0.22
  HS02004881           JUNCTION     0.01     0.02     9.05     0  02:26        0.02
  HS02004876           JUNCTION     0.04     0.10     9.13     0  02:25        0.10
  HS02004870           JUNCTION     0.01     0.04     9.33     0  02:26        0.04
  HS02004862           JUNCTION     0.02     0.05     9.43     0  02:27        0.05
  HS02004856           JUNCTION     0.08     0.11     9.53     0  02:26        0.11
  HS02004852           JUNCTION     0.01     0.03     9.54     0  02:27        0.03
  HS02004848           JUNCTION     0.01     0.03     9.63     0  02:26        0.03
  HS02004842           JUNCTION     0.33     0.36     9.63     0  02:26        0.36
  HS02004837           JUNCTION     0.03     0.05     9.63     0  02:26        0.05
  HS02004830           JUNCTION     0.04     0.06     9.53     0  02:26        0.06
  HS02004824           JUNCTION     0.02     0.04     9.45     0  02:27        0.04
  HS02004817           JUNCTION     0.43     0.53     9.37     0  02:27        0.53
  HS02004807           JUNCTION     0.12     0.20     9.37     0  02:27        0.20
  HS02004802           JUNCTION     0.16     0.24     9.37     0  02:27        0.24
  HS02004799           JUNCTION     0.11     0.25     9.46     0  02:25        0.25
  HS02004792           JUNCTION     0.03     0.09     9.62     0  02:25        0.09
  HS02004788           JUNCTION     0.02     0.07     9.97     0  02:26        0.07
  HS02004785           JUNCTION     0.04     0.13    10.03     0  02:25        0.13
  HS02004777           JUNCTION     0.14     0.24    10.04     0  02:25        0.24
  HS02004770           JUNCTION     0.11     0.21    10.04     0  02:25        0.21
  HS02004480           JUNCTION     0.08     0.19     9.43     0  02:26        0.19
  HS02004479           JUNCTION     0.11     0.23     9.43     0  02:25        0.23
  HS02004478           JUNCTION     0.06     0.12     9.35     0  02:26        0.12
  YS02001745           JUNCTION     0.62     0.85     8.37     0  04:03        0.85
  YS02001748           JUNCTION     0.99     1.42     8.50     0  03:25        1.29
  YS02001751           JUNCTION     1.18     1.83     8.71     0  03:03        1.50
  YS02001754           JUNCTION     1.43     1.87     8.47     0  03:03        1.78
  YS02001762           JUNCTION     1.63     2.02     8.42     0  03:59        2.00
  YS02001765           JUNCTION     1.58     1.96     8.41     0  03:59        1.95
  YS02001767           JUNCTION     1.54     1.92     8.41     0  03:56        1.90
  YS02001770           JUNCTION     1.54     1.90     8.40     0  03:57        1.89
  YS02001774           JUNCTION     1.61     1.97     8.39     0  04:01        1.95
  YS02001779           JUNCTION     1.36     1.68     8.37     0  03:48        1.68
  YS02001882           JUNCTION     0.35     0.64     7.35     0  03:03        0.64
  YS02001884           JUNCTION     0.45     0.74     7.35     0  03:02        0.74
  YS02001759           JUNCTION     1.66     2.05     8.42     0  03:56        2.03
  YS02001887           JUNCTION     0.52     0.81     7.35     0  03:02        0.81
  YS02001890           JUNCTION     0.55     0.84     7.35     0  03:00        0.84
  YS02001898           JUNCTION     0.32     0.60     7.33     0  03:02        0.60
  YS02001901           JUNCTION     0.44     0.73     7.33     0  03:01        0.72
  YS02001904           JUNCTION     0.42     0.70     7.33     0  03:01        0.69
  YS02001907           JUNCTION     0.75     1.07     7.36     0  03:01        1.05
  YS02001910           JUNCTION     0.54     0.83     7.34     0  03:01        0.82
  YS02001915           JUNCTION     0.34     0.62     7.34     0  03:01        0.62
  YS02001918           JUNCTION     0.11     0.26     7.33     0  03:02        0.26
  YS02001619           JUNCTION     1.14     1.61     8.54     0  03:15        1.46
  YS02001629           JUNCTION     1.49     1.85     8.40     0  03:22        1.84
  YS02001641           JUNCTION     1.60     1.94     8.37     0  03:48        1.93
  YS02001644           JUNCTION     1.60     1.92     8.35     0  03:40        1.92
  YS02001652           JUNCTION     1.44     2.16     8.76     0  02:56        1.85
  YS02001655           JUNCTION     1.21     2.20     9.05     0  02:54        1.64
  YS02001920           JUNCTION     0.21     0.33     7.34     0  03:00        0.33
  YS02001923           JUNCTION     0.08     0.12     7.38     0  03:02        0.12
  YS02001926           JUNCTION     0.17     0.23     7.67     0  03:02        0.23
  YS02001929           JUNCTION     0.08     0.12     7.81     0  03:01        0.12
  YS02001658           JUNCTION     0.94     2.30     9.44     0  03:15        1.38
  YS02001661           JUNCTION     0.72     1.95     9.35     0  03:50        1.14
  YS02001664           JUNCTION     0.31     0.57     8.49     0  03:50        0.56
  YS02001622           JUNCTION     1.16     1.56     8.47     0  03:13        1.48
  YS02001633           JUNCTION     1.59     1.95     8.40     0  03:48        1.93
  YS02001649           JUNCTION     1.64     2.05     8.44     0  03:49        2.02
  YS02001757           JUNCTION     1.76     2.16     8.42     0  04:01        2.14
  YS02001895           JUNCTION     0.32     0.59     7.34     0  03:02        0.59
  YS02001625           JUNCTION     1.45     1.78     8.38     0  03:11        1.78
  YS02163301           JUNCTION     1.52     1.89     8.40     0  03:48        1.87
  YS02163601           JUNCTION     1.64     1.99     8.39     0  03:48        1.98
  YS02164001           JUNCTION     1.58     1.92     8.38     0  03:48        1.91
  YS02001647           JUNCTION     1.43     1.80     8.41     0  03:57        1.77
  YSB1154              JUNCTION     0.25     0.38     9.43     0  02:26        0.38
  YSB6556              JUNCTION     0.14     0.26     9.43     0  02:26        0.26
  YSB1174              JUNCTION     0.20     0.32     9.43     0  02:26        0.32
  YSB1171              JUNCTION     0.40     0.53     9.43     0  02:25        0.53
  YS02006553           JUNCTION     0.75     1.07     7.36     0  03:01        1.05
  YS02006561           JUNCTION     0.17     0.37     7.03     0  03:02        0.36
  YS02006556           JUNCTION     0.73     1.02     7.33     0  03:04        1.01
  YS02006558           JUNCTION     0.77     1.07     7.33     0  03:03        1.05
  YS02001783           JUNCTION     0.36     1.12     7.26     0  03:04        0.92
  YS02001784           JUNCTION     0.40     1.09     7.16     0  02:54        0.95
  YS02001786           JUNCTION     0.37     0.95     6.98     0  03:01        0.93
  YS02001788           JUNCTION     0.33     0.92     6.89     0  02:53        0.91
  YS02001790           JUNCTION     0.45     1.16     6.81     0  03:08        1.15
  YS02001791           JUNCTION     0.46     1.41     6.88     0  02:37        1.22
  YS02001793           JUNCTION     0.66     3.21     8.04     0  02:30        1.79
  WS02004139           JUNCTION     0.62     0.66     5.57     0  02:50        0.66
  WSC                  OUTFALL      0.31     0.37     1.04     0  02:51        0.37
  3                    OUTFALL      0.07     0.13     6.13     0  00:00        0.12
  4                    OUTFALL      0.00     0.00     7.00     0  02:36        0.00
  5                    OUTFALL      0.00     0.00     5.00     0  00:00        0.00
  JK-storage           STORAGE      2.62     5.80     6.60     0  02:41        5.80
  CC-storage           STORAGE      0.99     1.36     8.36     0  04:06        1.36
  XR-storage           STORAGE      6.18     7.72     5.72     0  03:12        7.72
  
  
  *******************
  Node Inflow Summary
  *******************
  
  -------------------------------------------------------------------------------------------------
                                  Maximum  Maximum                  Lateral       Total        Flow
                                  Lateral    Total  Time of Max      Inflow      Inflow     Balance
                                   Inflow   Inflow   Occurrence      Volume      Volume       Error
  Node                 Type           LPS      LPS  days hr:min    10^6 ltr    10^6 ltr     Percent
  -------------------------------------------------------------------------------------------------
  WS02001211           JUNCTION      7.35   292.86     0  03:45       0.207        7.64       0.470
  WS02001212           JUNCTION      0.00   293.09     0  03:45           0         7.6       0.257
  WS02001213           JUNCTION      0.00   293.31     0  03:45           0        7.58       0.326
  WS02003069           JUNCTION      0.32   832.27     0  02:49     0.00902        15.7       0.195
  WS02003072           JUNCTION      0.00   832.25     0  02:50           0        15.7       0.238
  WS02003073           JUNCTION      1.82   834.06     0  02:50      0.0514        15.7       0.267
  WS02003060           JUNCTION     16.53   831.98     0  02:48       0.466        15.7       0.183
  WS02003066           JUNCTION      0.00   532.13     0  02:36           0        7.76       0.056
  WS02003059           JUNCTION      0.00   293.71     0  03:44           0        7.56       0.504
  WS02003067           JUNCTION      0.00   532.12     0  02:36           0        7.77       0.120
  WS02004401           JUNCTION      0.00   533.06     0  02:34           0           8       0.267
  WS02004402           JUNCTION      0.00   532.81     0  02:34           0        7.98       0.252
  WS02004403           JUNCTION      0.00   532.60     0  02:34           0        7.96       0.229
  WS02004404           JUNCTION      0.16   532.74     0  02:34     0.00457        7.94       0.173
  WS02004406           JUNCTION      0.00   532.73     0  02:34           0        7.91       0.422
  WS02004409           JUNCTION      0.00   532.61     0  02:35           0        7.87       0.205
  WS02004410           JUNCTION      0.00   532.42     0  02:35           0        7.85       0.232
  WS02004411           JUNCTION      0.00   532.28     0  02:35           0        7.84       0.238
  WS02004412           JUNCTION      0.00   532.20     0  02:36           0        7.82       0.258
  WS02004413           JUNCTION      0.00   532.15     0  02:36           0         7.8       0.382
  WS02004405           JUNCTION      0.04   532.77     0  02:34     0.00107        7.93       0.258
  WS02006109           JUNCTION      1.23   525.84     0  02:31      0.0347        8.08       0.270
  WS02006110           JUNCTION      0.00   525.85     0  02:31           0        8.06       0.244
  WS02006111           JUNCTION      0.00   545.79     0  02:31           0        8.03       0.055
  WS02006112           JUNCTION      7.75   535.98     0  02:31      0.0414        8.07       0.361
  WS02006113           JUNCTION      0.00   526.09     0  02:30           0        8.04       0.119
  WS02006115           JUNCTION      0.00   540.59     0  02:35           0        8.04       0.248
  WS02006116           JUNCTION      0.00   533.80     0  02:33           0        8.02       0.236
  WS02006230           JUNCTION     10.28   342.49     0  03:12        0.29        6.77       0.191
  WS02006231           JUNCTION      0.00   330.62     0  03:12           0         6.5       0.180
  WS02006232           JUNCTION      0.00   330.45     0  03:12           0        6.51       0.248
  WS02006234           JUNCTION      0.00   329.37     0  03:12           0        6.52       0.121
  WS02006235           JUNCTION      0.00   328.75     0  03:12           0        6.56       0.160
  WS02006238           JUNCTION      0.00   240.05     0  02:41           0        4.43       0.173
  WS02006240           JUNCTION      0.00   239.69     0  02:40           0        4.42       0.262
  WS02006242           JUNCTION      0.00   239.48     0  02:40           0        4.42       0.318
  WS02006243           JUNCTION      0.00   239.16     0  02:39           0        4.42       0.171
  WS02006245           JUNCTION      0.00   238.97     0  02:39           0        4.43       0.177
  WS02006247           JUNCTION      0.00   238.82     0  02:37           0        4.43       0.153
  WS02006248           JUNCTION      0.00   238.75     0  02:36           0        4.44       0.101
  WS02006249           JUNCTION      0.00   239.70     0  02:27           0        4.45       0.220
  WS02006239           JUNCTION      0.00   239.88     0  02:41           0        4.43       0.220
  WS02006251           JUNCTION      0.08   240.85     0  02:26     0.00217        4.46       0.196
  WS02006252           JUNCTION      0.00   200.00     0  02:50           0        4.23       0.010
  WS02006253           JUNCTION      1.03    41.74     0  02:26     0.00535       0.235       1.645
  WS02006256           JUNCTION      0.00   300.00     0  02:30           0        4.77       0.060
  WS02004138           JUNCTION      0.00   285.00     0  00:21           0        7.47       0.071
  WS02004407           JUNCTION      0.00   532.65     0  02:34           0        7.88       0.093
  WS02006228           JUNCTION      0.00   524.62     0  02:31           0        8.06       0.191
  WS02006229           JUNCTION      0.00   524.59     0  02:30           0        8.07       0.148
  WS02006280           JUNCTION      0.00   204.81     0  02:27           0        1.31       0.005
  WS02006284           JUNCTION      0.10   204.80     0  02:27      0.0027        1.31       0.088
  WS02006287           JUNCTION      0.00   204.70     0  02:27           0        1.31       0.053
  WSF200               JUNCTION      0.00   532.12     0  02:36           0        7.75       0.053
  HS02004901           JUNCTION      9.37     9.37     0  02:23      0.0498      0.0501       3.647
  HS02004881           JUNCTION      4.04    40.76     0  02:26      0.0217        0.23       0.122
  HS02004876           JUNCTION      7.43    36.75     0  02:26      0.0417       0.209       0.259
  HS02004870           JUNCTION      7.54    29.42     0  02:26      0.0411       0.167       0.066
  HS02004862           JUNCTION      7.28    22.06     0  02:26      0.0469       0.126       0.136
  HS02004856           JUNCTION      5.65    14.84     0  02:26       0.031      0.0805       1.823
  HS02004852           JUNCTION      0.00     9.33     0  02:26           0      0.0496       0.109
  HS02004848           JUNCTION     15.91    15.91     0  02:26      0.0988      0.0988       0.047
  HS02004842           JUNCTION      0.00     6.79     0  02:52           0      0.0622      26.415
  HS02004837           JUNCTION     19.22    25.66     0  02:25       0.251         0.3       0.272
  HS02004830           JUNCTION      0.15    25.80     0  02:26     0.00423        0.29       0.427
  HS02004824           JUNCTION     19.28    44.91     0  02:27       0.129       0.418       0.129
  HS02004817           JUNCTION      0.60    45.51     0  02:27      0.0169       0.435       3.988
  HS02004807           JUNCTION     13.93    58.94     0  02:27      0.0757       0.494       0.884
  HS02004802           JUNCTION      0.00    59.00     0  02:28           0       0.491       0.814
  HS02004799           JUNCTION     11.15   123.20     0  02:25      0.0613       0.713       0.360
  HS02004792           JUNCTION     47.36   112.13     0  02:24       0.263       0.652       0.064
  HS02004788           JUNCTION     17.07    65.26     0  02:25       0.132        0.39       0.101
  HS02004785           JUNCTION      0.15    48.39     0  02:25     0.00423       0.259       0.188
  HS02004777           JUNCTION      0.03    48.40     0  02:24    0.000846        0.26       2.037
  HS02004770           JUNCTION     39.46    48.64     0  02:23       0.213       0.261       1.203
  HS02004480           JUNCTION      0.00   146.07     0  02:25           0       0.837       0.127
  HS02004479           JUNCTION      0.00    23.09     0  02:27           0       0.137       0.537
  HS02004478           JUNCTION      0.00   204.69     0  02:26           0        1.31       0.031
  YS02001745           JUNCTION    149.28   272.34     0  03:11        1.44        1.45       0.731
  YS02001748           JUNCTION      0.04   389.11     0  03:12     0.00127        1.45       1.616
  YS02001751           JUNCTION      0.01   311.64     0  03:03     0.00031        1.41       1.683
  YS02001754           JUNCTION      0.26   210.64     0  03:07     0.00733        1.39       1.804
  YS02001762           JUNCTION      0.00   199.36     0  03:04           0        1.56       1.373
  YS02001765           JUNCTION      0.00   196.60     0  03:04           0        1.57       1.586
  YS02001767           JUNCTION      0.54   195.12     0  02:59      0.0151        1.59       2.318
  YS02001770           JUNCTION    187.24   192.60     0  02:59        1.65        1.65       1.963
  YS02001774           JUNCTION      0.00    32.78     0  01:57           0      0.0588      75.481
  YS02001779           JUNCTION      0.01    16.81     0  02:24    0.000141      0.0266     137.172
  YS02001882           JUNCTION      0.00    12.11     0  03:14           0      0.0122      19.116
  YS02001884           JUNCTION      0.00    18.87     0  03:05           0      0.0403      15.676
  YS02001759           JUNCTION    180.39   378.25     0  02:59        1.53        3.06       0.758
  YS02001887           JUNCTION    226.70   237.55     0  03:01        1.79        1.81       0.432
  YS02001890           JUNCTION      0.00   234.99     0  03:03           0        1.77       0.481
  YS02001898           JUNCTION      0.00   249.60     0  03:03           0        1.76       0.153
  YS02001901           JUNCTION      0.00   245.78     0  03:03           0        1.76       0.353
  YS02001904           JUNCTION      0.00   245.46     0  03:03           0        1.75       0.325
  YS02001907           JUNCTION      0.00   466.80     0  03:02           0        3.82       0.609
  YS02001910           JUNCTION      0.00   227.05     0  03:03           0        2.08       0.527
  YS02001915           JUNCTION    132.40   214.48     0  03:03        1.22        2.08       0.254
  YS02001918           JUNCTION      0.00    78.48     0  03:03           0       0.866       0.175
  YS02001619           JUNCTION    129.20   129.20     0  03:01        1.21        1.21       0.988
  YS02001629           JUNCTION      0.00   217.39     0  02:52           0        1.13       2.557
  YS02001641           JUNCTION      0.00   316.54     0  03:02           0        2.45       0.869
  YS02001644           JUNCTION    142.03   455.32     0  03:02        1.38        4.05       0.651
  YS02001652           JUNCTION      0.00   227.94     0  03:08           0        1.27       1.890
  YS02001655           JUNCTION      0.15   398.78     0  02:56     0.00434        1.29       1.744
  YS02001920           JUNCTION      2.87    67.64     0  03:02      0.0809       0.868       0.287
  YS02001923           JUNCTION      0.04    64.78     0  03:02     0.00106       0.788       0.052
  YS02001926           JUNCTION      0.05    64.97     0  03:01     0.00147       0.789       0.356
  YS02001929           JUNCTION     64.98    64.98     0  03:01       0.788       0.788       0.051
  YS02001658           JUNCTION      0.00   549.18     0  03:13           0         1.4       1.350
  YS02001661           JUNCTION      0.00   474.57     0  03:47           0        2.04       0.404
  YS02001664           JUNCTION    164.01   395.92     0  03:47        1.32        1.96       0.269
  YS02001622           JUNCTION      0.00   167.69     0  02:55           0         1.2       2.687
  YS02001633           JUNCTION    144.48   317.69     0  03:02        1.43         2.5       1.303
  YS02001649           JUNCTION      0.00   610.73     0  03:00           0        3.93       0.945
  YS02001757           JUNCTION      0.00  1100.09     0  03:02           0        8.02       1.163
  YS02001895           JUNCTION      0.00   244.66     0  03:04           0        1.76       0.240
  YS02001625           JUNCTION      0.00   217.81     0  02:52           0        1.16       3.424
  YS02163301           JUNCTION      0.00   176.51     0  03:04           0         1.1       2.224
  YS02163601           JUNCTION      0.11   317.53     0  03:02      0.0031        2.47       1.233
  YS02164001           JUNCTION      0.00   317.39     0  03:02           0        2.45       0.829
  YS02001647           JUNCTION      0.00   454.83     0  03:02           0        2.87       0.989
  YSB1154              JUNCTION     13.22    13.22     0  02:24      0.0743      0.0752       1.964
  YSB6556              JUNCTION      0.00    13.14     0  02:25           0      0.0759       1.671
  YSB1174              JUNCTION     10.23    10.23     0  02:22       0.054      0.0546       2.413
  YSB1171              JUNCTION      0.00    23.08     0  02:25           0       0.136       4.884
  YS02006553           JUNCTION      0.00   457.96     0  03:02           0        3.81       0.375
  YS02006561           JUNCTION      0.00   684.75     0  03:02           0        5.39       0.006
  YS02006556           JUNCTION      0.00   459.75     0  03:03           0        3.81       0.282
  YS02006558           JUNCTION    197.15   670.47     0  03:02        1.63        5.42       0.096
  YS02001783           JUNCTION      0.00   652.57     0  03:03           0        5.39       0.033
  YS02001784           JUNCTION      1.06   653.17     0  03:03      0.0299        5.42       0.058
  YS02001786           JUNCTION      0.06   652.75     0  03:03     0.00159        5.42       0.050
  YS02001788           JUNCTION      0.07   651.68     0  03:03       0.002        5.42       0.026
  YS02001790           JUNCTION      0.15   653.07     0  03:03     0.00437        5.42       0.040
  YS02001791           JUNCTION      0.00   652.91     0  03:03           0        5.42       0.019
  YS02001793           JUNCTION      0.00   989.70     0  02:30           0        5.43      -0.025
  WS02004139           JUNCTION      0.32   290.40     0  00:00     0.00905        7.47       0.522
  WSC                  OUTFALL       0.00   834.06     0  02:51           0        15.7       0.000
  3                    OUTFALL       0.00   239.66     0  00:00           0        2.61       0.000
  4                    OUTFALL       0.00     0.04     0  02:36           0    1.33e-05       0.000 ltr
  5                    OUTFALL       0.00     0.00     0  00:00           0           0       0.000 ltr
  JK-storage           STORAGE       0.00  1188.86     0  02:30           0        5.59      -1.795
  CC-storage           STORAGE       0.00  1099.88     0  03:02           0        7.84       0.807
  XR-storage           STORAGE     442.93   442.93     0  03:01        8.07        8.67      -0.001
  
  
  **********************
  Node Surcharge Summary
  **********************
  
  Surcharging occurs when water rises above the top of the highest conduit.
  ---------------------------------------------------------------------
                                               Max. Height   Min. Depth
                                   Hours       Above Crown    Below Rim
  Node                 Type      Surcharged         Meters       Meters
  ---------------------------------------------------------------------
  WS02006109           JUNCTION        1.28          0.140        1.680
  WS02006110           JUNCTION        0.22          0.005        1.845
  WS02006112           JUNCTION        0.83          0.053        1.627
  WS02006232           JUNCTION        1.03          0.081        1.399
  WS02006235           JUNCTION        0.68          0.026        1.264
  WS02006238           JUNCTION        0.78          0.042        1.388
  WS02006228           JUNCTION        1.26          0.166        2.034
  YS02001748           JUNCTION        4.33          0.344        0.846
  YS02001751           JUNCTION        4.75          0.826        0.374
  YS02001754           JUNCTION        5.17          0.816        0.334
  YS02001762           JUNCTION        5.50          1.018        0.132
  YS02001765           JUNCTION        5.47          0.963        0.137
  YS02001767           JUNCTION        5.43          0.921        0.109
  YS02001770           JUNCTION        5.40          0.870        0.050
  YS02001774           JUNCTION        5.49          0.966        0.084
  YS02001779           JUNCTION        5.15          0.680        0.000
  YS02001759           JUNCTION        5.53          1.055        0.155
  YS02001907           JUNCTION        0.29          0.058        0.892
  YS02001619           JUNCTION        4.70          0.608        0.002
  YS02001629           JUNCTION        4.71          0.470        0.000
  YS02001641           JUNCTION        5.48          0.938        0.162
  YS02001644           JUNCTION        5.48          0.920        0.000
  YS02001652           JUNCTION        5.23          1.130        0.000
  YS02001655           JUNCTION        4.78          1.200        0.000
  YS02001658           JUNCTION        4.34          1.300        0.000
  YS02001661           JUNCTION        0.06          0.877        0.513
  YS02001622           JUNCTION        4.80          0.562        0.058
  YS02001633           JUNCTION        5.45          0.927        0.133
  YS02001649           JUNCTION        5.51          1.050        0.000
  YS02001757           JUNCTION        5.64          1.158        0.052
  YS02001625           JUNCTION        5.31          0.780        0.000
  YS02163301           JUNCTION        5.42          0.886        0.144
  YS02163601           JUNCTION        5.51          0.995        0.085
  YS02164001           JUNCTION        5.46          0.923        0.177
  YS02001647           JUNCTION        5.27          0.798        0.102
  YS02006553           JUNCTION        0.40          0.074        1.116
  YS02001783           JUNCTION        0.21          0.317        1.283
  YS02001784           JUNCTION        0.38          0.288        1.202
  YS02001786           JUNCTION        0.24          0.147        1.283
  YS02001788           JUNCTION        0.14          0.116        1.364
  YS02001790           JUNCTION        1.81          0.363        0.794
  YS02001791           JUNCTION        1.95          0.614        1.306
  YS02001793           JUNCTION        2.19          2.207        0.393
  
  
  *********************
  Node Flooding Summary
  *********************
  
  Flooding refers to all water that overflows a node, whether it ponds or not.
  --------------------------------------------------------------------------
                                                             Total   Maximum
                                 Maximum   Time of Max       Flood    Ponded
                        Hours       Rate    Occurrence      Volume     Depth
  Node                 Flooded       LPS   days hr:min    10^6 ltr    Meters
  --------------------------------------------------------------------------
  YS02001779              0.82      9.25      0  03:59       0.005     0.000
  YS02001629              0.01     11.58      0  03:22       0.000     0.000
  YS02001644              2.99    409.54      0  04:10       1.378     0.000
  YS02001652              0.01     58.01      0  02:56       0.000     0.000
  YS02001655              0.01    288.19      0  02:58       0.001     0.000
  YS02001658              0.01    144.99      0  03:15       0.000     0.000
  YS02001649              0.01     29.61      0  03:50       0.000     0.000
  YS02001625              0.05     10.38      0  03:22       0.000     0.000
  JK-storage              1.48    352.99      0  03:03       0.900     0.000
  XR-storage              2.13    318.94      0  03:12       0.525     0.000
  
  
  **********************
  Storage Volume Summary
  **********************
  
  --------------------------------------------------------------------------------------------------
                         Average     Avg  Evap Exfil       Maximum     Max    Time of Max    Maximum
                          Volume    Pcnt  Pcnt  Pcnt        Volume    Pcnt     Occurrence    Outflow
  Storage Unit           1000 m3    Full  Loss  Loss       1000 m3    Full    days hr:min        LPS
  --------------------------------------------------------------------------------------------------
  JK-storage               0.132      45     0     0         0.291     100       0  02:41     848.35
  CC-storage               2.763      18     0     0         3.784      24       0  04:06     200.00
  XR-storage               0.742      80     0     0         0.926     100       0  03:12     285.00
  
  
  ***********************
  Outfall Loading Summary
  ***********************
  
  -----------------------------------------------------------
                         Flow       Avg       Max       Total
                         Freq      Flow      Flow      Volume
  Outfall Node           Pcnt       LPS       LPS    10^6 ltr
  -----------------------------------------------------------
  WSC                   99.99    612.93    834.06      15.659
  3                     81.06    139.76    239.66       2.610
  4                      1.10      0.04      0.04       0.000
  5                      0.00      0.00      0.00       0.000
  -----------------------------------------------------------
  System                45.54    752.73   1052.47      18.268
  
  
  ********************
  Link Flow Summary
  ********************
  
  -----------------------------------------------------------------------------
                                 Maximum  Time of Max   Maximum    Max/    Max/
                                  |Flow|   Occurrence   |Veloc|    Full    Full
  Link                 Type          LPS  days hr:min     m/sec    Flow   Depth
  -----------------------------------------------------------------------------
  WS02003066WSF200     CONDUIT    532.12     0  02:36      2.77    0.09    0.23
  WS02006287WS02006284 CONDUIT    204.71     0  02:27      1.62    0.09    0.22
  WS02006284WS02006280 CONDUIT    204.81     0  02:27      1.86    0.09    0.20
  WS02006280WS02006229 CONDUIT    204.81     0  02:27      2.99    0.04    0.14
  WS02006229WS02006228 CONDUIT    524.62     0  02:31      1.04    1.74    1.00
  WS02006256WS02006235 CONDUIT    166.25     0  00:01      2.58    1.76    1.00
  WS02006253WS02006251 CONDUIT     40.77     0  02:26      0.43    0.12    0.69
  WS02006252WS02006251 CONDUIT    200.34     0  02:01      1.97    0.74    0.76
  WS02006251WS02006249 CONDUIT    239.70     0  02:27      0.96    0.69    0.70
  WS02006249WS02006248 CONDUIT    238.75     0  02:36      1.04    1.31    0.69
  WS02006248WS02006247 CONDUIT    238.82     0  02:37      1.01    0.52    0.73
  WS02006247WS02006245 CONDUIT    238.97     0  02:39      0.99    1.89    0.78
  WS02006245WS02006243 CONDUIT    239.16     0  02:39      1.06    0.71    0.80
  WS02006243WS02006242 CONDUIT    239.48     0  02:40      0.92    0.51    0.90
  WS02006242WS02006240 CONDUIT    239.69     0  02:40      0.84    0.95    0.96
  WS02006240WS02006239 CONDUIT    239.88     0  02:41      0.91    0.75    0.96
  WS02006239WS02006238 CONDUIT    240.05     0  02:41      0.79    0.77    1.00
  WS02006238WS02006235 CONDUIT    240.26     0  03:09      1.25    0.54    1.00
  WS02006235WS02006234 CONDUIT    329.37     0  03:12      0.94    3.47    0.99
  WS02006234WS02006232 CONDUIT    330.45     0  03:12      1.13    0.67    1.00
  WS02006232WS02006231 CONDUIT    330.62     0  03:12      0.94    0.69    0.96
  WS02006231WS02006230 CONDUIT    332.21     0  03:12      1.29    5.04    0.91
  WS02006230WS02006229 CONDUIT    344.74     0  03:12      0.90    7.67    1.00
  WS02006228WS02006109 CONDUIT    524.61     0  02:31      1.04    2.29    1.00
  WS02006116WS02004401 CONDUIT    533.06     0  02:34      0.76    0.73    0.84
  WS02006115WS02006116 CONDUIT    533.80     0  02:33      0.84    0.69    0.76
  WS02006113WS02006111 CONDUIT    545.79     0  02:31      2.44    0.65    0.46
  WS02006112WS02006115 CONDUIT    540.59     0  02:35      0.75    0.32    0.87
  WS02006111WS02006112 CONDUIT    529.07     0  02:31      1.48    0.25    0.67
  WS02006110WS02006113 CONDUIT    526.09     0  02:30      1.25    0.48    0.78
  WS02006109WS02006110 CONDUIT    525.85     0  02:31      1.05    1.01    1.00
  WS02004411WS02004412 CONDUIT    532.20     0  02:36      0.92    0.76    0.69
  WS02004401WS02004402 CONDUIT    532.81     0  02:34      0.77    0.64    0.86
  WS02004413WS02003067 CONDUIT    532.12     0  02:36      1.10    0.23    0.59
  WS02004412WS02004413 CONDUIT    532.15     0  02:36      0.81    0.36    0.77
  WS02004410WS02004411 CONDUIT    532.28     0  02:35      0.93    0.73    0.68
  WS02004409WS02004410 CONDUIT    532.42     0  02:35      0.95    0.69    0.67
  WS02004407WS02004409 CONDUIT    532.61     0  02:35      1.43    0.19    0.48
  WS02004406WS02004407 CONDUIT    532.65     0  02:34      1.03    0.24    0.62
  WS02004405WS02004406 CONDUIT    532.73     0  02:34      0.69    1.05    0.95
  WS02004404WS02004405 CONDUIT    532.73     0  02:34      0.84    5.22    0.96
  WS02004403WS02004404 CONDUIT    532.58     0  02:34      0.74    0.38    0.92
  WS02004402WS02004403 CONDUIT    532.60     0  02:34      0.75    0.77    0.88
  WS02004139WS02001211 CONDUIT    285.52     0  03:45      0.81    0.36    0.53
  WS02004138WS02004139 CONDUIT    290.07     0  00:00      3.33    0.06    0.39
  WS02003067WS02003066 CONDUIT    532.13     0  02:36      1.20    0.17    0.41
  WS02001213WS02003059 CONDUIT    293.71     0  03:44      0.80    0.48    0.72
  WS02001212WS02001213 CONDUIT    293.31     0  03:45      1.19    0.45    0.41
  WS02001211WS02001212 CONDUIT    293.09     0  03:45      0.67    0.22    0.58
  WS02003072WS02003073 CONDUIT    832.24     0  02:50      1.65    1.80    0.46
  WS02003069WS02003072 CONDUIT    832.25     0  02:50      1.56    0.40    0.48
  WS02003060WS02003069 CONDUIT    831.95     0  02:49      1.81    0.33    0.43
  WS02003059WS02003060 CONDUIT    294.26     0  03:44      0.82    0.19    0.62
  HS02004901HS02004770 CONDUIT      9.22     0  02:24      0.05    0.03    0.31
  HS02004876HS02004881 CONDUIT     36.81     0  02:26      0.59    0.39    0.09
  HS02004870HS02004876 CONDUIT     29.40     0  02:26      0.41    0.02    0.10
  HS02004842HS02004848 CONDUIT      6.79     0  02:52      0.04    0.00    0.28
  HS02004837HS02004842 CONDUIT      7.01     0  03:02      0.41    0.00    0.29
  HS02004830HS02004837 CONDUIT     25.65     0  02:26      0.46    0.03    0.08
  HS02004824HS02004830 CONDUIT     25.79     0  02:27      0.49    0.03    0.08
  HS02004817HS02004824 CONDUIT     44.91     0  02:27      0.17    0.02    0.41
  HS02004770HS02004777 CONDUIT     48.37     0  02:24      0.21    0.09    0.33
  HS02004799HS02004480 CONDUIT    123.11     0  02:25      0.58    0.16    0.31
  HS02004792HS02004799 CONDUIT    112.10     0  02:25      0.66    0.07    0.24
  HS02004788HS02004792 CONDUIT     65.23     0  02:26      0.81    0.04    0.11
  HS02004785HS02004788 CONDUIT     48.34     0  02:26      0.49    0.36    0.14
  HS02004777HS02004785 CONDUIT     48.24     0  02:25      0.26    0.06    0.26
  HS02004480HS02004478 CONDUIT    146.06     0  02:26      0.94    0.62    0.22
  HS02004479HS02004480 CONDUIT     23.22     0  02:27      0.27    0.02    0.30
  HS02004862HS02004870 CONDUIT     22.03     0  02:27      0.49    0.02    0.06
  HS02004848HS02004852 CONDUIT      9.33     0  02:26      0.33    0.01    0.04
  HS02004856HS02004862 CONDUIT     14.82     0  02:26      0.35    0.01    0.06
  HS02004852HS02004856 CONDUIT      9.30     0  02:27      0.14    0.01    0.10
  HS02004802HS02004478 CONDUIT     59.19     0  02:29      0.33    0.05    0.26
  HS02004478WS02006287 CONDUIT    204.70     0  02:27      1.31    0.06    0.17
  HS02004817HS02004807 CONDUIT     45.68     0  02:29      0.13    0.03    0.52
  HS02004807HS02004802 CONDUIT     59.00     0  02:28      0.28    0.11    0.31
  YS02001759YS02001757 CONDUIT    379.27     0  02:59      0.48    0.27    1.00
  YS02001762YS02001759 CONDUIT    201.80     0  03:04      0.26    0.23    1.00
  YS02001765YS02001762 CONDUIT    199.36     0  03:04      0.28    0.19    1.00
  YS02001770YS02001767 CONDUIT    194.59     0  02:59      0.25    0.77    1.00
  YS02001774YS02001770 CONDUIT     32.78     0  01:57      0.22    0.02    1.00
  YS02001779YS02001774 CONDUIT     16.81     0  02:24      0.05    0.01    1.00
  YS02001649YS02001757 CONDUIT    610.41     0  03:00      0.78    0.37    1.00
  YS02001767YS02001765 CONDUIT    196.60     0  03:04      0.30    0.25    1.00
  YS02006561YS02001783 CONDUIT    652.57     0  03:03      2.00    0.34    0.73
  YS02001783YS02001784 CONDUIT    652.11     0  03:03      1.43    0.90    1.00
  YS02001784YS02001785 CONDUIT    652.70     0  03:03      1.55    1.52    1.00
  YS02001788YS02001790 CONDUIT    652.91     0  03:03      2.06    0.48    1.00
  YS02001790YS02001791 CONDUIT    652.91     0  03:03      2.43    0.71    1.00
  YS02001791YS02001793 CONDUIT    687.74     0  02:31      4.73    0.30    1.00
  YS02001910YS02001907 CONDUIT    231.39     0  03:02      0.49    0.13    0.91
  YS02001786YS02001788 CONDUIT    651.61     0  03:03      2.04    1.26    1.00
  YS02001915YS02001910 CONDUIT    227.05     0  03:03      0.55    0.11    0.72
  YS02001918YS02001915 CONDUIT     86.43     0  03:06      0.44    0.05    0.44
  YS02001923YS02001920 CONDUIT     64.77     0  03:02      0.57    0.03    0.22
  YS02001926YS02001923 CONDUIT     64.74     0  03:02      0.66    0.09    0.18
  YS02001929YS02001926 CONDUIT     64.92     0  03:01      0.71    0.03    0.17
  YS02001920YS02001918 CONDUIT     78.48     0  03:03      0.57    0.08    0.29
  YS02001629YS02163301 CONDUIT    176.51     0  03:04      0.22    0.22    1.00
  YS02001619YS02001622 CONDUIT    167.69     0  02:55      0.57    0.25    1.00
  YS02001622YS02001625 CONDUIT    217.81     0  02:52      0.31    0.12    1.00
  YS02001625YS02001629 CONDUIT    217.39     0  02:52      0.28    0.10    1.00
  YS02163301YS02001633 CONDUIT    176.56     0  03:10      0.22    0.17    1.00
  YS02163601YS02164001 CONDUIT    317.39     0  03:02      0.40    0.28    1.00
  YS02164001YS02001641 CONDUIT    316.54     0  03:02      0.40    0.43    1.00
  YS02001641YS02001644 CONDUIT    316.01     0  03:02      0.40    1.02    1.00
  YS02001647YS02001649 CONDUIT    454.01     0  03:02      0.58    0.24    1.00
  YS02006553YS02006556 CONDUIT    459.75     0  03:03      0.59    0.39    0.99
  YS02006556YS02006558 CONDUIT    476.85     0  03:02      0.61    0.38    1.00
  YSB6556YSB1171       CONDUIT     13.19     0  02:28      0.06    0.01    0.57
  YS02001907YS02006553 CONDUIT    457.96     0  03:02      0.51    0.54    1.00
  YS02006558YS02006561 CONDUIT    684.75     0  03:02      3.17    1.51    0.74
  YS02001633YS02163601 CONDUIT    317.42     0  03:02      0.40    0.33    1.00
  YS02001644YS02001647 CONDUIT    454.83     0  03:02      0.58    0.27    1.00
  YS02001745YS02001748 CONDUIT    389.06     0  03:12      1.42    0.15    0.93
  YS02001748YS02001751 CONDUIT    311.63     0  03:03      1.00    0.16    1.00
  YS02001751YS02001754 CONDUIT    210.38     0  03:07      0.86    0.10    1.00
  YS02001754YS02001757 CONDUIT    209.84     0  03:07      0.33    0.08    1.00
  YS02001882YS02001884 CONDUIT     16.68     0  03:10      0.09    0.02    0.66
  YS02001884YS02001887 CONDUIT     20.89     0  03:10      0.05    0.03    0.75
  YS02001890YS02001895 CONDUIT    244.66     0  03:04      0.41    0.11    0.72
  YS02001895YS02001898 CONDUIT    249.60     0  03:03      0.54    0.43    0.58
  YS02001898YS02001901 CONDUIT    245.78     0  03:03      0.46    0.16    0.66
  YS02001901YS02001904 CONDUIT    245.46     0  03:03      0.42    0.38    0.71
  YS02001904YS02001907 CONDUIT    255.11     0  03:02      0.36    0.09    0.85
  YS02001887YS02001890 CONDUIT    234.99     0  03:03      0.35    0.40    0.80
  YS02001652YS02001649 CONDUIT    227.80     0  03:08      0.56    0.11    1.00
  YS02001655YS02001652 CONDUIT    227.94     0  03:08      0.91    0.11    1.00
  YS02001658YS02001655 CONDUIT    398.63     0  02:56      1.15    0.17    1.00
  YS02001661YS02001658 CONDUIT    549.18     0  03:13      1.49    0.22    1.00
  YS02001664YS02001661 CONDUIT    474.57     0  03:47      1.39    0.15    0.70
  YSB1154YSB6556       CONDUIT     13.14     0  02:25      0.16    0.02    0.46
  YSB1174YSB1171       CONDUIT     10.08     0  02:23      0.04    0.02    0.57
  YSB1171HS02004479    CONDUIT     23.09     0  02:27      0.54    0.02    0.44
  HS02004881HS02006253 CONDUIT     40.75     0  02:26      1.48    0.01    0.13
  YS02001793JiankangQianchi CONDUIT   1188.86     0  02:30     10.72    0.09    1.00
  YS02001757CaochengTiaoxuchi CONDUIT   1099.88     0  03:02      1.66    0.48    1.00
  WSF200WS02003060     CONDUIT    531.48     0  02:37      1.85    0.12    0.33
  1                    CONDUIT    834.06     0  02:51      3.17    0.29    0.37
  2                    CONDUIT      0.04     0  02:36      0.00    0.00    0.01
  3                    CONDUIT    239.66     0  00:00      8.18    0.38    0.45
  4                    CONDUIT      0.00     0  00:00      0.00    0.00    0.00
  CC-Pump-1            PUMP       200.00     0  02:01              1.00
  CC-Pump-2            PUMP       200.00     0  03:00              1.00
  JK-Pump-1            PUMP       300.00     0  00:00              1.00
  JK-Pump-2            PUMP       300.00     0  02:40              1.00
  XR-Pump-1            PUMP        95.00     0  00:00              1.00
  XR-Pump-2            PUMP        95.00     0  00:00              1.00
  XR-Pump-3            PUMP        95.00     0  00:30              1.00
  XR-Pump-4            PUMP        95.00     0  00:00              1.00
  
  
  ***************************
  Flow Classification Summary
  ***************************
  
  -------------------------------------------------------------------------------------
                      Adjusted    ---------- Fraction of Time in Flow Class ---------- 
                       /Actual         Up    Down  Sub   Sup   Up    Down  Norm  Inlet 
  Conduit               Length    Dry  Dry   Dry   Crit  Crit  Crit  Crit  Ltd   Ctrl  
  -------------------------------------------------------------------------------------
  WS02003066WSF200        1.00   0.06  0.00  0.00  0.00  0.94  0.00  0.00  0.67  0.00
  WS02006287WS02006284    1.00   0.04  0.01  0.00  0.62  0.33  0.00  0.00  0.77  0.00
  WS02006284WS02006280    1.00   0.04  0.00  0.00  0.00  0.00  0.00  0.96  0.00  0.00
  WS02006280WS02006229    1.00   0.04  0.00  0.00  0.00  0.00  0.00  0.96  0.00  0.00
  WS02006229WS02006228    1.00   0.00  0.00  0.00  0.99  0.00  0.00  0.01  0.00  0.00
  WS02006256WS02006235    1.00   0.00  0.00  0.00  1.00  0.00  0.00  0.00  0.00  0.00
  WS02006253WS02006251    1.00   0.03  0.01  0.00  0.96  0.00  0.00  0.00  0.00  0.00
  WS02006252WS02006251    1.00   0.08  0.00  0.00  0.00  0.00  0.92  0.00  0.00  0.00
  WS02006251WS02006249    1.00   0.00  0.00  0.00  1.00  0.00  0.00  0.00  0.23  0.00
  WS02006249WS02006248    1.00   0.00  0.02  0.00  0.92  0.00  0.06  0.00  0.00  0.00
  WS02006248WS02006247    1.00   0.02  0.00  0.00  0.98  0.00  0.00  0.00  0.11  0.00
  WS02006247WS02006245    1.00   0.02  0.00  0.00  0.98  0.00  0.00  0.00  0.00  0.00
  WS02006245WS02006243    1.00   0.01  0.00  0.00  0.95  0.00  0.00  0.03  0.01  0.00
  WS02006243WS02006242    1.00   0.01  0.00  0.00  0.99  0.00  0.00  0.00  0.20  0.00
  WS02006242WS02006240    1.00   0.00  0.00  0.00  1.00  0.00  0.00  0.00  0.00  0.00
  WS02006240WS02006239    1.00   0.00  0.00  0.00  0.97  0.00  0.00  0.03  0.01  0.00
  WS02006239WS02006238    1.00   0.00  0.00  0.00  1.00  0.00  0.00  0.00  0.00  0.00
  WS02006238WS02006235    1.00   0.00  0.00  0.00  1.00  0.00  0.00  0.00  0.00  0.00
  WS02006235WS02006234    1.00   0.00  0.00  0.00  0.97  0.00  0.03  0.00  0.00  0.00
  WS02006234WS02006232    1.00   0.00  0.00  0.00  1.00  0.00  0.00  0.00  0.00  0.00
  WS02006232WS02006231    1.00   0.00  0.00  0.00  0.99  0.00  0.00  0.00  0.00  0.00
  WS02006231WS02006230    1.00   0.00  0.00  0.00  0.45  0.00  0.55  0.00  0.00  0.00
  WS02006230WS02006229    1.00   0.00  0.00  0.00  0.99  0.00  0.00  0.01  0.01  0.00
  WS02006228WS02006109    1.00   0.00  0.00  0.00  1.00  0.00  0.00  0.00  0.00  0.00
  WS02006116WS02004401    1.00   0.02  0.00  0.00  0.98  0.00  0.00  0.00  0.00  0.00
  WS02006115WS02006116    1.00   0.02  0.00  0.00  0.97  0.00  0.00  0.01  0.00  0.00
  WS02006113WS02006111    1.00   0.02  0.00  0.00  0.00  0.98  0.00  0.00  0.11  0.00
  WS02006112WS02006115    1.00   0.02  0.00  0.00  0.97  0.00  0.00  0.00  0.00  0.00
  WS02006111WS02006112    1.00   0.02  0.00  0.00  0.98  0.00  0.00  0.00  0.98  0.00
  WS02006110WS02006113    1.00   0.01  0.01  0.00  0.98  0.00  0.00  0.00  0.00  0.00
  WS02006109WS02006110    1.00   0.00  0.01  0.00  0.98  0.00  0.01  0.00  0.00  0.00
  WS02004411WS02004412    1.00   0.04  0.00  0.00  0.96  0.00  0.00  0.00  0.00  0.00
  WS02004401WS02004402    1.00   0.02  0.00  0.00  0.97  0.00  0.00  0.00  0.00  0.00
  WS02004413WS02003067    1.00   0.04  0.01  0.00  0.00  0.00  0.95  0.00  0.00  0.00
  WS02004412WS02004413    1.00   0.04  0.00  0.00  0.96  0.00  0.00  0.00  0.03  0.00
  WS02004410WS02004411    1.00   0.04  0.00  0.00  0.96  0.00  0.00  0.00  0.03  0.00
  WS02004409WS02004410    1.00   0.04  0.00  0.00  0.96  0.00  0.00  0.00  0.03  0.00
  WS02004407WS02004409    1.00   0.04  0.00  0.00  0.96  0.00  0.00  0.00  0.89  0.00
  WS02004406WS02004407    1.00   0.00  0.04  0.00  0.96  0.00  0.00  0.00  0.00  0.00
  WS02004405WS02004406    1.00   0.00  0.00  0.00  1.00  0.00  0.00  0.00  0.00  0.00
  WS02004404WS02004405    1.00   0.00  0.00  0.00  1.00  0.00  0.00  0.00  0.00  0.00
  WS02004403WS02004404    1.00   0.00  0.03  0.00  0.97  0.00  0.00  0.00  0.01  0.00
  WS02004402WS02004403    1.00   0.03  0.00  0.00  0.97  0.00  0.00  0.00  0.00  0.00
  WS02004139WS02001211    1.00   0.00  0.00  0.00  1.00  0.00  0.00  0.00  0.00  0.00
  WS02004138WS02004139    1.00   0.00  0.00  0.00  0.99  0.01  0.00  0.00  1.00  0.00
  WS02003067WS02003066    1.00   0.05  0.01  0.00  0.94  0.00  0.00  0.00  0.00  0.00
  WS02001213WS02003059    1.00   0.00  0.00  0.00  0.99  0.00  0.00  0.00  0.00  0.00
  WS02001212WS02001213    1.00   0.00  0.00  0.00  0.90  0.00  0.09  0.00  0.00  0.00
  WS02001211WS02001212    1.00   0.00  0.00  0.00  1.00  0.00  0.00  0.00  0.00  0.00
  WS02003072WS02003073    1.00   0.00  0.00  0.00  0.00  0.00  0.00  1.00  0.00  0.00
  WS02003069WS02003072    1.00   0.00  0.00  0.00  0.99  0.01  0.00  0.00  0.22  0.00
  WS02003060WS02003069    1.00   0.00  0.00  0.00  0.98  0.02  0.00  0.00  0.00  0.00
  WS02003059WS02003060    1.00   0.00  0.00  0.00  1.00  0.00  0.00  0.00  0.01  0.00
  HS02004901HS02004770    1.00   0.04  0.00  0.00  0.96  0.00  0.00  0.00  0.00  0.00
  HS02004876HS02004881    1.00   0.02  0.00  0.00  0.98  0.00  0.00  0.00  0.00  0.00
  HS02004870HS02004876    1.00   0.00  0.00  0.00  0.99  0.00  0.00  0.00  0.95  0.00
  HS02004842HS02004848    1.00   0.00  0.04  0.00  0.96  0.00  0.00  0.00  0.61  0.00
  HS02004837HS02004842    1.00   0.00  0.00  0.00  0.99  0.01  0.00  0.00  0.11  0.00
  HS02004830HS02004837    1.00   0.00  0.00  0.00  1.00  0.00  0.00  0.00  0.99  0.00
  HS02004824HS02004830    1.00   0.00  0.00  0.00  1.00  0.00  0.00  0.00  0.00  0.00
  HS02004817HS02004824    1.00   0.00  0.00  0.00  1.00  0.00  0.00  0.00  1.00  0.00
  HS02004770HS02004777    1.00   0.00  0.04  0.00  0.96  0.00  0.00  0.00  0.03  0.00
  HS02004799HS02004480    1.00   0.00  0.02  0.00  0.95  0.00  0.02  0.00  0.00  0.00
  HS02004792HS02004799    1.00   0.00  0.00  0.00  0.99  0.01  0.00  0.00  0.98  0.00
  HS02004788HS02004792    1.00   0.00  0.00  0.00  0.99  0.01  0.00  0.00  0.98  0.00
  HS02004785HS02004788    1.00   0.00  0.00  0.00  1.00  0.00  0.00  0.00  0.00  0.00
  HS02004777HS02004785    1.00   0.00  0.00  0.00  1.00  0.00  0.00  0.00  0.13  0.00
  HS02004480HS02004478    1.00   0.04  0.00  0.00  0.67  0.00  0.00  0.29  0.00  0.00
  HS02004479HS02004480    1.00   0.03  0.00  0.00  0.97  0.00  0.00  0.00  0.12  0.00
  HS02004862HS02004870    1.00   0.00  0.00  0.00  1.00  0.00  0.00  0.00  0.06  0.00
  HS02004848HS02004852    1.00   0.04  0.00  0.00  0.96  0.00  0.00  0.00  0.69  0.00
  HS02004856HS02004862    1.00   0.00  0.05  0.00  0.95  0.00  0.00  0.00  0.81  0.00
  HS02004852HS02004856    1.00   0.04  0.00  0.00  0.96  0.00  0.00  0.00  0.86  0.00
  HS02004802HS02004478    1.00   0.04  0.00  0.00  0.96  0.00  0.00  0.00  0.03  0.00
  HS02004478WS02006287    1.00   0.05  0.00  0.00  0.75  0.20  0.00  0.00  0.77  0.00
  HS02004817HS02004807    1.00   0.00  0.04  0.00  0.96  0.00  0.00  0.00  0.01  0.00
  HS02004807HS02004802    1.00   0.04  0.00  0.00  0.95  0.00  0.00  0.00  0.00  0.00
  YS02001759YS02001757    1.00   0.00  0.00  0.00  1.00  0.00  0.00  0.00  0.16  0.00
  YS02001762YS02001759    1.00   0.00  0.00  0.00  1.00  0.00  0.00  0.00  0.03  0.00
  YS02001765YS02001762    1.00   0.00  0.00  0.00  1.00  0.00  0.00  0.00  0.15  0.00
  YS02001770YS02001767    1.00   0.00  0.00  0.00  1.00  0.00  0.00  0.00  0.00  0.00
  YS02001774YS02001770    1.00   0.00  0.04  0.00  0.96  0.00  0.00  0.00  0.03  0.00
  YS02001779YS02001774    1.00   0.00  0.00  0.00  1.00  0.00  0.00  0.00  0.21  0.00
  YS02001649YS02001757    1.00   0.00  0.00  0.00  1.00  0.00  0.00  0.00  0.16  0.00
  YS02001767YS02001765    1.00   0.00  0.00  0.00  1.00  0.00  0.00  0.00  0.01  0.00
  YS02006561YS02001783    1.00   0.06  0.00  0.00  0.28  0.66  0.00  0.00  0.72  0.00
  YS02001783YS02001784    1.00   0.00  0.06  0.00  0.94  0.00  0.00  0.00  0.01  0.00
  YS02001784YS02001785    1.00   0.00  0.00  0.00  1.00  0.00  0.00  0.00  0.19  0.00
  YS02001788YS02001790    1.00   0.00  0.00  0.00  0.39  0.61  0.00  0.00  0.61  0.00
  YS02001790YS02001791    1.00   0.00  0.00  0.00  0.36  0.64  0.00  0.00  0.46  0.00
  YS02001791YS02001793    1.00   0.00  0.00  0.00  0.38  0.62  0.00  0.00  0.03  0.00
  YS02001910YS02001907    1.00   0.00  0.00  0.00  0.97  0.00  0.00  0.02  0.12  0.00
  YS02001786YS02001788    1.00   0.00  0.00  0.00  0.37  0.63  0.00  0.00  0.00  0.00
  YS02001915YS02001910    1.00   0.00  0.00  0.00  0.99  0.01  0.00  0.00  0.18  0.00
  YS02001918YS02001915    1.00   0.00  0.01  0.00  0.98  0.01  0.00  0.00  0.69  0.00
  YS02001923YS02001920    1.00   0.00  0.00  0.00  1.00  0.00  0.00  0.00  1.00  0.00
  YS02001926YS02001923    1.00   0.00  0.03  0.00  0.00  0.00  0.97  0.00  0.00  0.00
  YS02001929YS02001926    1.00   0.00  0.04  0.00  0.96  0.00  0.00  0.00  0.87  0.00
  YS02001920YS02001918    1.00   0.00  0.01  0.00  0.99  0.00  0.00  0.00  0.00  0.00
  YS02001629YS02163301    1.00   0.05  0.00  0.00  0.95  0.00  0.00  0.00  0.00  0.00
  YS02001619YS02001622    1.00   0.04  0.00  0.00  0.96  0.00  0.00  0.00  0.00  0.00
  YS02001622YS02001625    1.00   0.04  0.00  0.00  0.96  0.00  0.00  0.00  0.07  0.00
  YS02001625YS02001629    1.00   0.04  0.01  0.00  0.92  0.00  0.02  0.00  0.00  0.00
  YS02163301YS02001633    1.00   0.00  0.05  0.00  0.95  0.00  0.00  0.00  0.00  0.00
  YS02163601YS02164001    1.00   0.00  0.03  0.00  0.97  0.00  0.00  0.00  0.00  0.00
  YS02164001YS02001641    1.00   0.01  0.03  0.00  0.97  0.00  0.00  0.00  0.06  0.00
  YS02001641YS02001644    1.00   0.00  0.01  0.00  0.99  0.00  0.00  0.00  0.00  0.00
  YS02001647YS02001649    1.00   0.00  0.05  0.00  0.95  0.00  0.00  0.00  0.01  0.00
  YS02006553YS02006556    1.00   0.01  0.00  0.00  0.99  0.00  0.00  0.00  0.03  0.00
  YS02006556YS02006558    1.00   0.00  0.00  0.00  1.00  0.00  0.00  0.00  0.00  0.00
  YSB6556YSB1171          1.00   0.03  0.01  0.00  0.96  0.00  0.00  0.00  0.00  0.00
  YS02001907YS02006553    1.00   0.00  0.02  0.00  0.98  0.00  0.00  0.00  0.00  0.00
  YS02006558YS02006561    1.00   0.06  0.00  0.00  0.00  0.94  0.00  0.00  0.60  0.00
  YS02001633YS02163601    1.00   0.00  0.01  0.00  0.99  0.00  0.00  0.00  0.15  0.00
  YS02001644YS02001647    1.00   0.00  0.05  0.00  0.95  0.00  0.00  0.00  0.00  0.00
  YS02001745YS02001748    1.00   0.00  0.00  0.00  0.87  0.01  0.00  0.12  0.07  0.00
  YS02001748YS02001751    1.00   0.00  0.00  0.00  0.97  0.03  0.00  0.00  0.16  0.00
  YS02001751YS02001754    1.00   0.00  0.00  0.00  0.94  0.00  0.00  0.06  0.02  0.00
  YS02001754YS02001757    1.00   0.00  0.00  0.00  0.99  0.01  0.00  0.00  0.20  0.00
  YS02001882YS02001884    1.00   0.05  0.00  0.00  0.95  0.00  0.00  0.00  0.00  0.00
  YS02001884YS02001887    1.00   0.03  0.01  0.00  0.96  0.00  0.00  0.00  0.00  0.00
  YS02001890YS02001895    1.00   0.00  0.05  0.00  0.95  0.00  0.00  0.00  0.00  0.00
  YS02001895YS02001898    1.00   0.05  0.00  0.00  0.94  0.00  0.01  0.00  0.00  0.00
  YS02001898YS02001901    1.00   0.05  0.00  0.00  0.95  0.00  0.00  0.00  0.03  0.00
  YS02001901YS02001904    1.00   0.05  0.00  0.00  0.95  0.00  0.00  0.00  0.00  0.00
  YS02001904YS02001907    1.00   0.00  0.05  0.00  0.95  0.00  0.00  0.00  0.00  0.00
  YS02001887YS02001890    1.00   0.00  0.00  0.00  0.97  0.00  0.02  0.00  0.00  0.00
  YS02001652YS02001649    1.00   0.00  0.00  0.00  1.00  0.00  0.00  0.00  0.18  0.00
  YS02001655YS02001652    1.00   0.00  0.00  0.00  0.94  0.00  0.00  0.06  0.02  0.00
  YS02001658YS02001655    1.00   0.00  0.04  0.00  0.92  0.03  0.00  0.00  0.12  0.00
  YS02001661YS02001658    1.00   0.04  0.00  0.00  0.86  0.09  0.00  0.00  0.16  0.00
  YS02001664YS02001661    1.00   0.04  0.00  0.00  0.84  0.12  0.00  0.00  0.30  0.00
  YSB1154YSB6556          1.00   0.04  0.00  0.00  0.96  0.00  0.00  0.00  0.02  0.00
  YSB1174YSB1171          1.00   0.03  0.01  0.00  0.96  0.00  0.00  0.00  0.00  0.00
  YSB1171HS02004479       1.00   0.03  0.00  0.00  0.97  0.00  0.00  0.00  0.10  0.00
  HS02004881HS02006253    1.00   0.03  0.00  0.00  0.91  0.00  0.00  0.06  0.75  0.00
  YS02001793JiankangQianchi    1.00   0.00  0.00  0.00  0.57  0.43  0.00  0.00  0.15  0.00
  YS02001757CaochengTiaoxuchi    1.00   0.00  0.08  0.00  0.92  0.00  0.00  0.00  0.00  0.00
  WSF200WS02003060        1.00   0.00  0.06  0.00  0.81  0.14  0.00  0.00  0.23  0.00
  1                       1.00   0.00  0.00  0.00  0.00  1.00  0.00  0.00  0.15  0.00
  2                       1.00   0.98  0.00  0.00  0.00  0.02  0.00  0.00  0.00  0.00
  3                       1.00   0.19  0.00  0.00  0.00  0.81  0.00  0.00  0.22  0.00
  4                       1.00   1.00  0.00  0.00  0.00  0.00  0.00  0.00  0.00  0.00
  
  
  *************************
  Conduit Surcharge Summary
  *************************
  
  ----------------------------------------------------------------------------
                                                           Hours        Hours 
                         --------- Hours Full --------   Above Full   Capacity
  Conduit                Both Ends  Upstream  Dnstream   Normal Flow   Limited
  ----------------------------------------------------------------------------
  WS02006229WS02006228        1.26      1.31      1.26      5.55         1.26
  WS02006256WS02006235        6.14      6.14      7.83      3.67         0.01
  WS02006249WS02006248        0.01      0.01      0.01      5.82         0.01
  WS02006247WS02006245        0.01      0.01      0.01      5.84         0.01
  WS02006242WS02006240        0.01      0.01      0.36      0.01         0.01
  WS02006239WS02006238        0.65      0.65      0.78      0.01         0.01
  WS02006238WS02006235        0.75      0.75      0.89      0.01         0.01
  WS02006235WS02006234        0.01      0.01      0.68      6.15         0.01
  WS02006234WS02006232        0.36      0.36      1.03      0.01         0.01
  WS02006232WS02006231        0.01      0.01      1.03      0.01         0.01
  WS02006231WS02006230        0.01      0.01      0.01      6.16         0.01
  WS02006230WS02006229        1.81      4.29      1.81      6.25         1.81
  WS02006228WS02006109        1.28      1.49      1.28      5.98         1.28
  WS02006112WS02006115        0.01      0.01      0.83      0.01         0.01
  WS02006111WS02006112        0.01      0.01      5.80      0.01         0.01
  WS02006110WS02006113        0.01      0.01      1.37      0.01         0.01
  WS02006109WS02006110        0.22      0.22      1.49      0.22         0.01
  WS02004405WS02004406        0.01      0.01      0.01      0.73         0.01
  WS02004404WS02004405        0.01      0.01      0.01      5.99         0.01
  WS02003072WS02003073        0.01      0.01      0.01      5.74         0.01
  YS02001759YS02001757        5.53      5.53      5.64      0.01         0.01
  YS02001762YS02001759        5.50      5.50      5.53      0.01         0.01
  YS02001765YS02001762        5.47      5.47      5.50      0.01         0.01
  YS02001770YS02001767        5.43      5.43      5.43      0.01         0.56
  YS02001774YS02001770        5.40      5.40      5.49      0.01         0.01
  YS02001779YS02001774        5.15      5.15      5.49      0.01         0.01
  YS02001649YS02001757        5.51      5.51      5.64      0.01         0.01
  YS02001767YS02001765        5.43      5.43      5.47      0.01         0.01
  YS02006561YS02001783        0.01      0.01      0.21      0.01         0.01
  YS02001783YS02001784        0.21      0.21      0.38      0.01         0.02
  YS02001784YS02001785        0.24      0.38      0.24      1.11         0.22
  YS02001788YS02001790        0.14      0.14      1.81      0.01         0.01
  YS02001790YS02001791        1.81      1.81      1.95      0.01         0.01
  YS02001791YS02001793        1.95      1.95      2.28      0.01         0.01
  YS02001910YS02001907        0.01      0.01      0.29      0.01         0.01
  YS02001786YS02001788        0.14      0.24      0.14      0.62         0.11
  YS02001629YS02163301        5.40      5.40      5.42      0.01         0.01
  YS02001619YS02001622        4.70      4.70      4.80      0.01         0.03
  YS02001622YS02001625        4.80      4.80      5.31      0.01         0.01
  YS02001625YS02001629        4.71      4.71      5.31      0.01         0.01
  YS02163301YS02001633        5.42      5.42      5.47      0.01         0.01
  YS02163601YS02164001        5.46      5.46      5.51      0.01         0.01
  YS02164001YS02001641        5.46      5.46      5.48      0.01         0.02
  YS02001641YS02001644        5.48      5.48      5.48      0.01         0.71
  YS02001647YS02001649        5.27      5.27      5.51      0.01         0.01
  YS02006553YS02006556        0.01      0.01      0.40      0.01         0.01
  YS02006556YS02006558        0.05      0.05      0.53      0.01         0.01
  YS02001907YS02006553        1.12      1.12      1.36      0.01         0.01
  YS02006558YS02006561        0.01      0.01      0.01      0.94         0.01
  YS02001633YS02163601        5.45      5.45      5.51      0.01         0.01
  YS02001644YS02001647        5.27      5.27      5.48      0.01         0.01
  YS02001745YS02001748        0.01      0.01      4.33      0.01         0.01
  YS02001748YS02001751        4.43      4.43      4.75      0.01         0.01
  YS02001751YS02001754        4.75      4.75      5.17      0.01         0.01
  YS02001754YS02001757        5.26      5.26      5.64      0.01         0.01
  YS02001904YS02001907        0.01      0.01      0.45      0.01         0.01
  YS02001652YS02001649        5.29      5.29      5.51      0.01         0.01
  YS02001655YS02001652        4.78      4.78      5.23      0.01         0.01
  YS02001658YS02001655        4.33      4.33      4.78      0.01         0.01
  YS02001661YS02001658        0.06      0.06      4.34      0.01         0.01
  YS02001664YS02001661        0.01      0.01      0.70      0.01         0.01
  YS02001793JiankangQianchi        2.19      2.19      3.43      0.01         0.01
  YS02001757CaochengTiaoxuchi        4.42      4.42      5.64      0.01         0.01
  
  
  ***************
  Pumping Summary
  ***************
  
  ---------------------------------------------------------------------------------------------------------
                                                  Min       Avg       Max     Total     Power    % Time Off
                        Percent   Number of      Flow      Flow      Flow    Volume     Usage    Pump Curve
  Pump                 Utilized   Start-Ups       LPS       LPS       LPS  10^6 ltr     Kw-hr    Low   High
  ---------------------------------------------------------------------------------------------------------
  CC-Pump-1               71.35           2      0.00    192.29    200.00     3.865      5.03    0.0   14.0
  CC-Pump-2                8.51           1      0.00    150.46    200.00     0.360      0.81    0.0    0.0
  JK-Pump-1               40.43           3      0.00    180.38    300.00     1.164      9.58    0.0    0.0
  JK-Pump-2               85.09           3      0.00    184.59    300.00     3.608     36.58    0.0    0.0
  XR-Pump-1               74.48           4      0.00     87.53     95.00     1.824     13.46    0.0    0.0
  XR-Pump-2               42.55           2      0.00     82.35     95.00     1.055     17.99    0.0    0.0
  XR-Pump-3               85.09           3      0.00     89.09     95.00     2.137     20.56    0.0    0.0
  XR-Pump-4               95.74           3      0.00     89.66     95.00     2.451     26.18    0.0    0.0
  

  Analysis begun on:  Wed Dec 15 13:22:32 2021
  Analysis ended on:  Wed Dec 15 13:22:36 2021
  Total elapsed time: 00:00:04