
  EPA STORM WATER MANAGEMENT MODEL - VERSION 5.1 (Build 5.3.0.dev0)
  --------------------------------------------------------------

  WARNING 04: minimum elevation drop used for Conduit WS02004404WS02004405
  WARNING 03: negative offset ignored for Link YS02001904YS02001907
  
  *********************************************************
  NOTE: The summary statistics displayed in this report are
  based on results found at every computational time step,  
  not just on results from each reporting time step.
  *********************************************************
  
  ****************
  Analysis Options
  ****************
  Flow Units ............... LPS
  Process Models:
    Rainfall/Runoff ........ YES
    RDII ................... NO
    Snowmelt ............... NO
    Groundwater ............ NO
    Flow Routing ........... YES
    Ponding Allowed ........ NO
    Water Quality .......... NO
  Infiltration Method ...... HORTON
  Flow Routing Method ...... DYNWAVE
  Surcharge Method ......... EXTRAN
  Starting Date ............ 08/28/2015 08:00:00
  Ending Date .............. 08/28/2015 15:50:00
  Antecedent Dry Days ...... 8.0
  Report Time Step ......... 00:01:00
  Wet Time Step ............ 00:01:00
  Dry Time Step ............ 00:01:00
  Routing Time Step ........ 5.00 sec
  Variable Time Step ....... YES
  Maximum Trials ........... 8
  Number of Threads ........ 4
  Head Tolerance ........... 0.001500 m
  
  
  **************************        Volume         Depth
  Runoff Quantity Continuity     hectare-m            mm
  **************************     ---------       -------
  Total Precipitation ......         5.556        12.164
  Evaporation Loss .........         0.000         0.000
  Infiltration Loss ........         1.427         3.124
  Surface Runoff ...........         3.072         6.726
  Final Storage ............         1.058         2.316
  Continuity Error (%) .....        -0.016
  
  
  **************************        Volume        Volume
  Flow Routing Continuity        hectare-m      10^6 ltr
  **************************     ---------     ---------
  Dry Weather Inflow .......         0.616         6.165
  Wet Weather Inflow .......         3.071        30.708
  Groundwater Inflow .......         0.000         0.000
  RDII Inflow ..............         0.000         0.000
  External Inflow ..........         0.102         1.024
  External Outflow .........         2.082        20.822
  Flooding Loss ............         1.236        12.360
  Evaporation Loss .........         0.000         0.000
  Exfiltration Loss ........         0.000         0.000
  Initial Stored Volume ....         0.076         0.761
  Final Stored Volume ......         0.633         6.326
  Continuity Error (%) .....        -2.200
  
  
  *************************
  Highest Continuity Errors
  *************************
  Node HS02004842 (16.24%)
  Node YS02001884 (11.17%)
  Node JK-storage (-9.55%)
  Node YS02001774 (3.21%)
  Node YSB1171 (3.12%)
  
  
  ***************************
  Time-Step Critical Elements
  ***************************
  Link WS02006252WS02006251 (51.21%)
  Link 3 (39.88%)
  Link WS02006238WS02006235 (2.73%)
  Link WS02006280WS02006229 (1.43%)
  
  
  ********************************
  Highest Flow Instability Indexes
  ********************************
  Link YS02001619YS02001622 (39)
  Link YS02163601YS02164001 (38)
  Link YS02001629YS02163301 (38)
  Link YS02163301YS02001633 (38)
  Link YS02164001YS02001641 (35)
  
  
  *************************
  Routing Time Step Summary
  *************************
  Minimum Time Step           :     0.02 sec
  Average Time Step           :     0.77 sec
  Maximum Time Step           :     5.00 sec
  Percent in Steady State     :    -0.00
  Average Iterations per Step :     4.76
  Percent Not Converging      :    24.37
  
  
  ***************************
  Subcatchment Runoff Summary
  ***************************
  
  ------------------------------------------------------------------------------------------------------------------------------
                            Total      Total      Total      Total     Imperv       Perv      Total       Total     Peak  Runoff
                           Precip      Runon       Evap      Infil     Runoff     Runoff     Runoff      Runoff   Runoff   Coeff
  Subcatchment                 mm         mm         mm         mm         mm         mm         mm    10^6 ltr      LPS
  ------------------------------------------------------------------------------------------------------------------------------
  sub0                      12.16       0.00       0.00       0.85      10.05       0.00      10.05        0.01     1.91   0.826
  sub1                      12.16       0.00       0.00       1.34       9.56       0.00       9.56        0.06    14.15   0.786
  sub2                      12.16       0.00       0.00       4.50       6.75       0.00       6.75        0.06    13.75   0.555
  sub3                      12.16       0.00       0.00       4.50       6.71       0.00       6.71        0.15    32.07   0.552
  sub4                      12.16       0.00       0.00       1.34       9.40       0.00       9.40        0.20    40.20   0.773
  sub5                      12.16       0.00       0.00       0.85       9.99       0.00       9.99        0.11    25.19   0.822
  sub7                      12.16       0.00       0.00       1.09       9.81       0.00       9.81        0.03     7.55   0.807
  sub8                      12.16       0.00       0.00       1.09       9.80       0.00       9.80        0.06    14.17   0.806
  sub9                      12.16       0.00       0.00       1.09       9.80       0.00       9.80        0.05    10.64   0.806
  sub10                     12.16       0.00       0.00       0.97       9.89       0.00       9.89        0.11    24.40   0.813
  sub11                     12.16       0.00       0.00       0.97       9.91       0.00       9.91        0.12    26.15   0.815
  sub12                     12.16       0.00       0.00       1.58       9.39       0.00       9.39        0.08    19.06   0.772
  sub14                     12.16       0.00       0.00       1.09       9.80       0.00       9.80        0.09    21.02   0.805
  sub15                     12.16       0.00       0.00       3.65       7.53       0.00       7.53        0.13    29.11   0.619
  sub16                     12.16       0.00       0.00       4.01       7.23       0.00       7.23        0.08    17.47   0.594
  sub17                     12.16       0.00       0.00       3.89       7.34       0.00       7.34        0.06    14.47   0.603
  sub22                     12.16       0.00       0.00       5.23       6.14       0.00       6.14        0.39    88.27   0.505
  sub23                     12.16       0.00       0.00       4.50       6.79       0.00       6.79        0.32    73.89   0.558
  sub60                     12.16       0.00       0.00       1.46       7.71       0.00       7.71        2.34   297.17   0.634
  sub61                     12.16       0.00       0.00       2.07       7.87       0.00       7.87        2.43   359.80   0.647
  sub62                     12.16       0.00       0.00       0.97       8.55       0.00       8.55        2.63   372.87   0.703
  sub63                     12.16       0.00       0.00       3.53       6.89       0.00       6.89        2.09   327.80   0.567
  sub64                     12.16       0.00       0.00       1.82       7.40       0.00       7.40        2.25   282.66   0.608
  sub65                     12.16       0.00       0.00       1.58       7.52       0.00       7.52        2.31   287.20   0.618
  sub66                     12.16       0.00       0.00       3.53       6.36       0.00       6.36        1.95   257.27   0.523
  sub67                     12.16       0.00       0.00       0.97       9.05       0.00       9.05        2.79   452.90   0.744
  sub68                     12.16       0.00       0.00       1.70       8.28       0.00       8.28        2.55   391.99   0.681
  sub69                     12.16       0.00       0.00       1.82       8.61       0.00       8.61        2.01   355.79   0.708
  sub70                     12.16       8.79       0.00       7.03      11.43       0.10      11.53        2.64   335.00   0.550
  sub71                     12.16       0.00       0.00       0.97       8.31       0.00       8.31        1.96   263.63   0.683
  sub72                     12.16       0.00       0.00       0.85       6.56       0.00       6.56        1.34   129.40   0.540
  sub73                     12.16      11.23       0.00       7.88      12.47       0.08      12.54        2.95   300.52   0.536
  sub74                     12.16       0.00       0.00       9.12       2.57       0.00       2.57        1.03   189.59   0.211
  
  
  ******************
  Node Depth Summary
  ******************
  
  ---------------------------------------------------------------------------------
                                 Average  Maximum  Maximum  Time of Max    Reported
                                   Depth    Depth      HGL   Occurrence   Max Depth
  Node                 Type       Meters   Meters   Meters  days hr:min      Meters
  ---------------------------------------------------------------------------------
  WS02001211           JUNCTION     0.66     0.77     5.61     0  07:20        0.77
  WS02001212           JUNCTION     0.38     0.48     5.55     0  03:51        0.48
  WS02001213           JUNCTION     0.63     0.73     5.49     0  03:01        0.73
  WS02003069           JUNCTION     0.46     0.59     5.17     0  03:03        0.59
  WS02003072           JUNCTION     0.52     0.65     5.02     0  03:03        0.65
  WS02003073           JUNCTION     0.32     0.40     4.46     0  03:04        0.40
  WS02003060           JUNCTION     0.41     0.52     5.45     0  03:02        0.52
  WS02003066           JUNCTION     0.25     0.33     5.88     0  03:06        0.33
  WS02003059           JUNCTION     0.69     0.79     5.48     0  03:01        0.79
  WS02003067           JUNCTION     0.60     0.74     6.06     0  03:06        0.74
  WS02004401           JUNCTION     0.72     0.97     6.97     0  03:04        0.97
  WS02004402           JUNCTION     0.75     0.99     6.95     0  03:04        0.99
  WS02004403           JUNCTION     0.77     0.99     6.92     0  03:04        0.99
  WS02004404           JUNCTION     0.84     1.05     6.90     0  03:04        1.05
  WS02004406           JUNCTION     0.85     1.03     6.86     0  03:04        1.03
  WS02004409           JUNCTION     0.54     0.75     6.52     0  03:05        0.75
  WS02004410           JUNCTION     0.56     0.76     6.48     0  03:05        0.76
  WS02004411           JUNCTION     0.57     0.76     6.44     0  03:05        0.76
  WS02004412           JUNCTION     0.58     0.76     6.40     0  03:05        0.76
  WS02004413           JUNCTION     0.74     0.91     6.38     0  03:06        0.91
  WS02004405           JUNCTION     0.84     1.04     6.89     0  03:04        1.04
  WS02006109           JUNCTION     0.81     1.10     7.72     0  03:02        1.09
  WS02006110           JUNCTION     0.79     1.02     7.60     0  03:03        1.01
  WS02006111           JUNCTION     0.24     0.35     7.06     0  03:03        0.34
  WS02006112           JUNCTION     0.90     1.19     7.08     0  02:31        1.18
  WS02006113           JUNCTION     0.37     0.51     7.40     0  03:03        0.51
  WS02006115           JUNCTION     0.62     0.88     7.02     0  03:03        0.88
  WS02006116           JUNCTION     0.70     0.96     7.00     0  03:04        0.96
  WS02006230           JUNCTION     0.80     1.16     7.91     0  03:02        1.16
  WS02006231           JUNCTION     0.54     0.82     7.94     0  03:02        0.82
  WS02006232           JUNCTION     0.68     0.94     7.98     0  03:02        0.93
  WS02006234           JUNCTION     0.60     0.85     8.00     0  03:02        0.85
  WS02006235           JUNCTION     0.63     0.87     8.03     0  03:02        0.86
  WS02006238           JUNCTION     0.66     0.90     8.04     0  03:02        0.89
  WS02006240           JUNCTION     0.56     0.79     8.09     0  02:40        0.79
  WS02006242           JUNCTION     0.62     0.85     8.12     0  02:40        0.85
  WS02006243           JUNCTION     0.50     0.74     8.16     0  02:40        0.74
  WS02006245           JUNCTION     0.47     0.70     8.19     0  02:40        0.70
  WS02006247           JUNCTION     0.49     0.71     8.21     0  02:40        0.71
  WS02006248           JUNCTION     0.43     0.64     8.23     0  02:40        0.64
  WS02006249           JUNCTION     0.46     0.65     8.25     0  02:40        0.65
  WS02006239           JUNCTION     0.62     0.85     8.06     0  02:41        0.85
  WS02006251           JUNCTION     0.45     0.69     8.36     0  02:40        0.69
  WS02006252           JUNCTION     0.39     0.59     8.83     0  05:48        0.59
  WS02006253           JUNCTION     0.47     0.72     8.37     0  02:40        0.72
  WS02006256           JUNCTION     1.08     2.35     9.28     0  00:00        1.21
  WS02004138           JUNCTION     0.15     0.19     7.44     0  07:12        0.19
  WS02004407           JUNCTION     0.24     0.33     6.64     0  03:04        0.33
  WS02006228           JUNCTION     0.82     1.17     7.82     0  03:02        1.16
  WS02006229           JUNCTION     0.80     1.18     7.87     0  03:02        1.17
  WS02006280           JUNCTION     0.07     0.19     8.46     0  03:02        0.19
  WS02006284           JUNCTION     0.37     0.55     8.95     0  03:02        0.55
  WS02006287           JUNCTION     0.11     0.28     9.24     0  03:01        0.28
  WSF200               JUNCTION     0.24     0.35     5.59     0  03:05        0.35
  HS02004901           JUNCTION     0.13     0.28    10.10     0  03:01        0.28
  HS02004881           JUNCTION     0.01     0.04     9.07     0  03:01        0.04
  HS02004876           JUNCTION     0.05     0.12     9.15     0  03:01        0.12
  HS02004870           JUNCTION     0.02     0.06     9.35     0  03:01        0.06
  HS02004862           JUNCTION     0.02     0.07     9.46     0  03:01        0.07
  HS02004856           JUNCTION     0.08     0.13     9.55     0  03:01        0.13
  HS02004852           JUNCTION     0.01     0.05     9.56     0  03:01        0.05
  HS02004848           JUNCTION     0.01     0.05     9.65     0  03:01        0.05
  HS02004842           JUNCTION     0.33     0.38     9.65     0  03:01        0.38
  HS02004837           JUNCTION     0.03     0.07     9.65     0  03:01        0.07
  HS02004830           JUNCTION     0.04     0.08     9.55     0  03:01        0.08
  HS02004824           JUNCTION     0.03     0.06     9.46     0  03:01        0.06
  HS02004817           JUNCTION     0.45     0.60     9.44     0  03:01        0.60
  HS02004807           JUNCTION     0.13     0.27     9.44     0  03:01        0.27
  HS02004802           JUNCTION     0.17     0.30     9.43     0  03:01        0.30
  HS02004799           JUNCTION     0.13     0.33     9.54     0  03:01        0.33
  HS02004792           JUNCTION     0.04     0.14     9.66     0  03:01        0.14
  HS02004788           JUNCTION     0.03     0.10    10.00     0  03:01        0.10
  HS02004785           JUNCTION     0.05     0.17    10.07     0  03:01        0.17
  HS02004777           JUNCTION     0.15     0.30    10.10     0  03:01        0.30
  HS02004770           JUNCTION     0.12     0.27    10.10     0  03:01        0.27
  HS02004480           JUNCTION     0.09     0.26     9.50     0  03:01        0.26
  HS02004479           JUNCTION     0.13     0.30     9.50     0  03:01        0.30
  HS02004478           JUNCTION     0.07     0.18     9.41     0  03:01        0.18
  YS02001745           JUNCTION     0.69     0.87     8.39     0  03:14        0.87
  YS02001748           JUNCTION     1.09     2.27     9.35     0  02:42        1.31
  YS02001751           JUNCTION     1.27     2.20     9.08     0  02:42        1.52
  YS02001754           JUNCTION     1.53     2.20     8.81     0  02:42        1.80
  YS02001762           JUNCTION     1.73     2.08     8.48     0  02:44        2.01
  YS02001765           JUNCTION     1.68     2.01     8.46     0  02:44        1.96
  YS02001767           JUNCTION     1.65     1.97     8.46     0  02:44        1.91
  YS02001770           JUNCTION     1.64     1.95     8.44     0  02:44        1.90
  YS02001774           JUNCTION     1.71     2.01     8.43     0  02:42        1.96
  YS02001779           JUNCTION     1.46     1.68     8.37     0  02:42        1.68
  YS02001882           JUNCTION     0.54     1.61     8.33     0  02:52        1.60
  YS02001884           JUNCTION     0.64     1.71     8.33     0  02:52        1.70
  YS02001759           JUNCTION     1.76     2.12     8.48     0  02:44        2.06
  YS02001887           JUNCTION     0.72     1.79     8.33     0  02:52        1.78
  YS02001890           JUNCTION     0.75     1.81     8.31     0  02:52        1.79
  YS02001898           JUNCTION     0.51     1.55     8.29     0  02:52        1.55
  YS02001901           JUNCTION     0.63     1.67     8.28     0  03:00        1.67
  YS02001904           JUNCTION     0.61     1.64     8.27     0  02:58        1.63
  YS02001907           JUNCTION     0.94     1.96     8.25     0  02:52        1.96
  YS02001910           JUNCTION     0.73     1.78     8.28     0  02:53        1.76
  YS02001915           JUNCTION     0.53     1.59     8.31     0  02:53        1.58
  YS02001918           JUNCTION     0.27     1.26     8.32     0  02:53        1.24
  YS02001619           JUNCTION     1.24     1.61     8.54     0  02:39        1.47
  YS02001629           JUNCTION     1.60     1.85     8.40     0  02:40        1.84
  YS02001641           JUNCTION     1.70     1.96     8.39     0  02:44        1.93
  YS02001644           JUNCTION     1.70     1.92     8.35     0  02:44        1.92
  YS02001652           JUNCTION     1.54     2.16     8.76     0  03:05        1.98
  YS02001655           JUNCTION     1.30     2.20     9.05     0  02:34        1.90
  YS02001920           JUNCTION     0.37     1.34     8.34     0  02:53        1.31
  YS02001923           JUNCTION     0.21     1.09     8.35     0  02:53        1.07
  YS02001926           JUNCTION     0.26     0.90     8.34     0  02:53        0.88
  YS02001929           JUNCTION     0.15     0.68     8.37     0  02:53        0.63
  YS02001658           JUNCTION     1.03     2.30     9.44     0  02:40        1.91
  YS02001661           JUNCTION     0.80     2.46     9.86     0  02:59        1.91
  YS02001664           JUNCTION     0.35     0.57     8.50     0  02:54        0.56
  YS02001622           JUNCTION     1.26     1.62     8.52     0  02:39        1.49
  YS02001633           JUNCTION     1.69     2.03     8.48     0  02:43        1.94
  YS02001649           JUNCTION     1.74     2.05     8.44     0  02:55        2.05
  YS02001757           JUNCTION     1.86     2.21     8.47     0  02:42        2.16
  YS02001895           JUNCTION     0.51     1.55     8.30     0  02:58        1.55
  YS02001625           JUNCTION     1.55     1.78     8.38     0  02:40        1.78
  YS02163301           JUNCTION     1.63     1.95     8.46     0  02:43        1.87
  YS02163601           JUNCTION     1.74     2.04     8.44     0  02:44        1.98
  YS02164001           JUNCTION     1.68     1.96     8.42     0  02:44        1.91
  YS02001647           JUNCTION     1.53     1.80     8.41     0  02:57        1.79
  YSB1154              JUNCTION     0.27     0.45     9.51     0  03:01        0.45
  YSB6556              JUNCTION     0.16     0.34     9.51     0  03:01        0.34
  YSB1174              JUNCTION     0.22     0.40     9.51     0  03:01        0.40
  YSB1171              JUNCTION     0.42     0.60     9.51     0  03:01        0.60
  YS02006553           JUNCTION     0.94     1.96     8.25     0  02:58        1.96
  YS02006561           JUNCTION     0.32     1.08     7.74     0  03:00        1.07
  YS02006556           JUNCTION     0.91     1.92     8.23     0  02:59        1.91
  YS02006558           JUNCTION     0.95     1.96     8.23     0  03:00        1.95
  YS02001783           JUNCTION     0.54     2.08     8.22     0  02:32        1.46
  YS02001784           JUNCTION     0.56     1.96     8.02     0  02:32        1.41
  YS02001786           JUNCTION     0.50     2.23     8.26     0  02:32        1.52
  YS02001788           JUNCTION     0.44     1.94     7.92     0  02:32        1.45
  YS02001790           JUNCTION     0.55     1.96     7.60     0  02:31        1.66
  YS02001791           JUNCTION     0.52     1.75     7.22     0  02:32        1.50
  YS02001793           JUNCTION     0.71     2.93     7.77     0  02:28        1.93
  WS02004139           JUNCTION     0.60     0.72     5.63     0  07:20        0.72
  WSC                  OUTFALL      0.32     0.40     1.07     0  03:04        0.40
  3                    OUTFALL      0.11     0.23     6.23     0  00:00        0.21
  4                    OUTFALL      0.03     0.15     7.15     0  02:40        0.15
  5                    OUTFALL      0.00     0.00     5.00     0  00:00        0.00
  JK-storage           STORAGE      2.66     5.80     6.60     0  02:32        5.80
  CC-storage           STORAGE      1.08     1.38     8.38     0  03:53        1.38
  XR-storage           STORAGE      7.04     7.72     5.72     0  02:38        7.72
  
  
  *******************
  Node Inflow Summary
  *******************
  
  -------------------------------------------------------------------------------------------------
                                  Maximum  Maximum                  Lateral       Total        Flow
                                  Lateral    Total  Time of Max      Inflow      Inflow     Balance
                                   Inflow   Inflow   Occurrence      Volume      Volume       Error
  Node                 Type           LPS      LPS  days hr:min    10^6 ltr    10^6 ltr     Percent
  -------------------------------------------------------------------------------------------------
  WS02001211           JUNCTION      7.35   387.54     0  07:20       0.207        6.76       0.442
  WS02001212           JUNCTION      0.00   387.42     0  07:20           0        6.73       0.237
  WS02001213           JUNCTION      0.00   387.34     0  07:20           0        6.72       0.333
  WS02003069           JUNCTION      0.32   956.63     0  03:02     0.00902        15.8       0.178
  WS02003072           JUNCTION      0.00   956.44     0  03:03           0        15.8       0.223
  WS02003073           JUNCTION      1.82   958.16     0  03:03      0.0514        15.8       0.251
  WS02003060           JUNCTION     16.53   956.41     0  03:02       0.466        15.8       0.170
  WS02003066           JUNCTION      0.00   658.85     0  03:06           0        8.72       0.053
  WS02003059           JUNCTION      0.00   387.17     0  07:20           0         6.7       0.512
  WS02003067           JUNCTION      0.00   658.74     0  03:06           0        8.73       0.110
  WS02004401           JUNCTION      0.00   660.47     0  03:04           0        8.97       0.245
  WS02004402           JUNCTION      0.00   660.13     0  03:04           0        8.95       0.231
  WS02004403           JUNCTION      0.00   659.75     0  03:04           0        8.93       0.209
  WS02004404           JUNCTION      0.16   659.74     0  03:04     0.00457        8.91       0.156
  WS02004406           JUNCTION      0.00   659.84     0  03:04           0        8.88       0.381
  WS02004409           JUNCTION      0.00   659.77     0  03:04           0        8.84       0.193
  WS02004410           JUNCTION      0.00   659.36     0  03:05           0        8.82       0.218
  WS02004411           JUNCTION      0.00   659.13     0  03:05           0         8.8       0.223
  WS02004412           JUNCTION      0.00   658.90     0  03:05           0        8.78       0.240
  WS02004413           JUNCTION      0.00   658.84     0  03:05           0        8.76       0.355
  WS02004405           JUNCTION      0.04   659.81     0  03:04     0.00107         8.9       0.236
  WS02006109           JUNCTION      1.23   653.44     0  03:02      0.0347        9.03       0.255
  WS02006110           JUNCTION      0.00   653.37     0  03:02           0        9.01       0.223
  WS02006111           JUNCTION      0.00   687.38     0  03:02           0        8.98       0.050
  WS02006112           JUNCTION     14.47   664.13     0  03:02      0.0629        9.04       0.317
  WS02006113           JUNCTION      0.00   654.94     0  03:02           0        8.99       0.111
  WS02006115           JUNCTION      0.00   664.08     0  03:02           0        9.01       0.234
  WS02006116           JUNCTION      0.00   661.47     0  03:03           0        8.99       0.225
  WS02006230           JUNCTION     10.28   399.13     0  05:43        0.29        7.15       0.172
  WS02006231           JUNCTION      0.00   389.56     0  05:42           0        6.87       0.195
  WS02006232           JUNCTION      0.00   389.64     0  05:42           0        6.89       0.240
  WS02006234           JUNCTION      0.00   392.11     0  05:41           0         6.9       0.123
  WS02006235           JUNCTION      0.00   391.38     0  05:41           0        6.93       0.155
  WS02006238           JUNCTION      0.00   310.52     0  06:00           0        4.93       0.160
  WS02006240           JUNCTION      0.00   312.47     0  06:21           0        4.93       0.246
  WS02006242           JUNCTION      0.00   321.12     0  04:01           0        4.94       0.295
  WS02006243           JUNCTION      0.00   332.02     0  04:01           0        4.94      -0.040
  WS02006245           JUNCTION      0.00   338.75     0  05:11           0        4.94       0.196
  WS02006247           JUNCTION      0.00   345.22     0  05:10           0        4.95       0.140
  WS02006248           JUNCTION      0.00   350.88     0  04:40           0        4.95       0.077
  WS02006249           JUNCTION      0.00   459.78     0  02:40           0        5.59       0.191
  WS02006239           JUNCTION      0.00   310.50     0  06:00           0        4.93       0.239
  WS02006251           JUNCTION      0.08   460.27     0  02:40     0.00217        5.62       0.159
  WS02006252           JUNCTION      0.00   400.00     0  05:40           0        5.23       0.008
  WS02006253           JUNCTION      1.91    81.00     0  03:01     0.00814       0.391       0.973
  WS02006256           JUNCTION      0.00   600.00     0  00:00           0        6.46       0.032
  WS02004138           JUNCTION      0.00   380.00     0  07:10           0        6.58       0.065
  WS02004407           JUNCTION      0.00   659.92     0  03:04           0        8.84       0.087
  WS02006228           JUNCTION      0.00   652.30     0  03:02           0        9.01       0.177
  WS02006229           JUNCTION      0.00   650.45     0  03:02           0        9.03       0.127
  WS02006280           JUNCTION      0.00   375.54     0  03:02           0        1.89       0.004
  WS02006284           JUNCTION      0.10   375.54     0  03:02      0.0027        1.89       0.064
  WS02006287           JUNCTION      0.00   375.26     0  03:01           0        1.89       0.037
  WSF200               JUNCTION      0.00   658.91     0  03:06           0        8.72       0.054
  HS02004901           JUNCTION     17.47    17.47     0  03:01      0.0757      0.0759       2.380
  HS02004881           JUNCTION      7.55    79.19     0  03:01      0.0331       0.357       0.092
  HS02004876           JUNCTION     14.15    72.10     0  03:01      0.0636       0.324       0.171
  HS02004870           JUNCTION     14.17    58.27     0  03:01      0.0626       0.261       0.043
  HS02004862           JUNCTION     13.95    44.46     0  03:01      0.0685       0.198       0.089
  HS02004856           JUNCTION     10.64    30.79     0  03:01      0.0471       0.131       1.115
  HS02004852           JUNCTION      0.00    20.44     0  03:01           0       0.084       0.069
  HS02004848           JUNCTION     32.07    32.07     0  03:01       0.151       0.151       0.033
  HS02004842           JUNCTION      0.00    11.42     0  03:01           0      0.0801      19.388
  HS02004837           JUNCTION     30.75    41.91     0  03:01       0.288       0.355       0.230
  HS02004830           JUNCTION      0.15    41.84     0  03:01     0.00423       0.346       0.358
  HS02004824           JUNCTION     40.25    81.79     0  03:01       0.197       0.542       0.100
  HS02004817           JUNCTION      0.60    82.18     0  03:01      0.0169       0.558       3.079
  HS02004807           JUNCTION     26.15   107.24     0  03:01       0.115       0.657       0.656
  HS02004802           JUNCTION      0.00   106.49     0  03:01           0       0.653       0.620
  HS02004799           JUNCTION     21.02   227.51     0  03:01      0.0932        1.06       0.236
  HS02004792           JUNCTION     88.55   207.33     0  03:01       0.396       0.966       0.043
  HS02004788           JUNCTION     30.78   119.37     0  03:01       0.177       0.571       0.068
  HS02004785           JUNCTION      0.15    89.79     0  03:01     0.00423       0.396       0.125
  HS02004777           JUNCTION      0.03    90.24     0  03:01    0.000846       0.397       1.326
  HS02004770           JUNCTION     73.89    90.93     0  03:01       0.324       0.398       0.787
  HS02004480           JUNCTION      0.00   269.27     0  03:01           0        1.25       0.099
  HS02004479           JUNCTION      0.00    42.82     0  03:02           0       0.204       0.361
  HS02004478           JUNCTION      0.00   375.17     0  03:01           0        1.89       0.018
  YS02001745           JUNCTION    297.18   421.38     0  02:42        2.34        2.35       0.460
  YS02001748           JUNCTION      0.04   617.09     0  02:42     0.00127        2.34       0.974
  YS02001751           JUNCTION      0.01   355.43     0  02:38     0.00031         2.3       1.044
  YS02001754           JUNCTION      0.26   309.95     0  03:01     0.00733        2.29       1.095
  YS02001762           JUNCTION      0.00   343.34     0  02:56           0        1.83       1.161
  YS02001765           JUNCTION      0.00   343.62     0  02:56           0        1.83       1.338
  YS02001767           JUNCTION      0.54   343.65     0  02:56      0.0151        1.85       1.962
  YS02001770           JUNCTION    373.02   373.02     0  03:01        2.63        2.64       1.191
  YS02001774           JUNCTION      0.00   216.12     0  03:20           0       0.781       3.315
  YS02001779           JUNCTION      0.01   216.62     0  03:20    0.000141       0.749       2.094
  YS02001882           JUNCTION      0.00    26.72     0  02:35           0      0.0187      13.529
  YS02001884           JUNCTION      0.00    51.15     0  02:34           0      0.0546      12.578
  YS02001759           JUNCTION    359.84   675.09     0  02:56        2.43        4.22       0.545
  YS02001887           JUNCTION    453.35   453.37     0  03:01         2.8        2.83       0.300
  YS02001890           JUNCTION      0.00   453.39     0  03:00           0        2.79       0.331
  YS02001898           JUNCTION      0.00   453.41     0  03:01           0        2.77       0.117
  YS02001901           JUNCTION      0.00   453.71     0  03:01           0        2.77       0.248
  YS02001904           JUNCTION      0.00   453.66     0  03:01           0        2.77       0.225
  YS02001907           JUNCTION      0.00   862.53     0  02:58           0        6.12       0.396
  YS02001910           JUNCTION      0.00   431.62     0  02:54           0        3.37       0.351
  YS02001915           JUNCTION    263.65   431.56     0  02:54        1.96        3.39       0.181
  YS02001918           JUNCTION      0.00   197.70     0  02:54           0        1.43       0.131
  YS02001619           JUNCTION    257.27   257.27     0  03:01        1.95        1.95       0.619
  YS02001629           JUNCTION      0.00   209.24     0  02:50           0        1.64       1.758
  YS02001641           JUNCTION      0.00   444.36     0  02:50           0        3.85       0.548
  YS02001644           JUNCTION    282.70   921.99     0  03:20        2.25        7.85       0.334
  YS02001652           JUNCTION      0.00   373.41     0  03:01           0        2.04       1.145
  YS02001655           JUNCTION      0.15   375.09     0  02:34     0.00434        2.06       1.230
  YS02001920           JUNCTION      2.87   197.80     0  02:54      0.0809        1.42       0.204
  YS02001923           JUNCTION      0.04   208.36     0  02:54     0.00106        1.34       0.051
  YS02001926           JUNCTION      0.05   179.43     0  02:54     0.00147        1.34       0.247
  YS02001929           JUNCTION    129.40   129.40     0  03:01        1.34        1.34       0.040
  YS02001658           JUNCTION      0.00   649.68     0  02:40           0        2.09       1.059
  YS02001661           JUNCTION      0.00   697.26     0  02:54           0        2.76      -0.014
  YS02001664           JUNCTION    327.80   361.61     0  02:53        2.09        2.76       0.220
  YS02001622           JUNCTION      0.00   257.41     0  03:00           0        1.94       1.655
  YS02001633           JUNCTION    287.40   444.41     0  02:50        2.32        3.91       0.826
  YS02001649           JUNCTION      0.00   948.36     0  02:51           0         5.3       0.704
  YS02001757           JUNCTION      0.00  1802.76     0  02:51           0         9.9       0.940
  YS02001895           JUNCTION      0.00   453.50     0  03:01           0        2.78       0.177
  YS02001625           JUNCTION      0.00   257.37     0  03:01           0         1.9       2.052
  YS02163301           JUNCTION      0.00   216.19     0  02:39           0        1.62       1.486
  YS02163601           JUNCTION      0.11   444.58     0  02:50      0.0031        3.87       0.781
  YS02164001           JUNCTION      0.00   444.40     0  02:50           0        3.85       0.517
  YS02001647           JUNCTION      0.00   675.68     0  02:50           0        4.17       0.680
  YSB1154              JUNCTION     25.19    25.19     0  03:01       0.113       0.114       1.286
  YSB6556              JUNCTION      0.00    24.91     0  03:01           0       0.115       1.100
  YSB1174              JUNCTION     19.06    19.06     0  03:01      0.0821      0.0827       1.581
  YSB1171              JUNCTION      0.00    43.19     0  03:01           0       0.203       3.219
  YS02006553           JUNCTION      0.00   666.46     0  03:17           0         5.9       0.262
  YS02006561           JUNCTION      0.00   964.07     0  03:00           0        8.41       0.006
  YS02006556           JUNCTION      0.00   666.46     0  03:17           0         5.9       0.190
  YS02006558           JUNCTION    392.87   964.37     0  03:00        2.57        8.44       0.065
  YS02001783           JUNCTION      0.00   964.09     0  03:00           0        8.41       0.028
  YS02001784           JUNCTION      1.06   965.13     0  03:00      0.0299        8.44       0.044
  YS02001786           JUNCTION      0.06   965.22     0  03:00     0.00159        8.44       0.041
  YS02001788           JUNCTION      0.07   965.25     0  03:01       0.002        8.44       0.025
  YS02001790           JUNCTION      0.15   965.43     0  03:00     0.00437        8.44       0.029
  YS02001791           JUNCTION      0.00   965.51     0  03:00           0        8.44       0.014
  YS02001793           JUNCTION      0.00   965.53     0  03:00           0        8.44       0.001
  WS02004139           JUNCTION      0.32   380.32     0  07:12     0.00905        6.59       0.506
  WSC                  OUTFALL       0.00   957.98     0  03:04           0        15.8       0.000
  3                    OUTFALL       0.00   597.65     0  00:00           0        4.43       0.000
  4                    OUTFALL       0.00   201.88     0  02:40           0       0.621       0.000
  5                    OUTFALL       0.00     0.00     0  00:00           0           0       0.000 ltr
  JK-storage           STORAGE       0.00   965.48     0  03:00           0        8.59      -8.720
  CC-storage           STORAGE       0.00  1802.56     0  02:51           0         8.9       0.716
  XR-storage           STORAGE     690.11   690.11     0  03:01        9.61        10.2      -0.002
  
  
  **********************
  Node Surcharge Summary
  **********************
  
  Surcharging occurs when water rises above the top of the highest conduit.
  ---------------------------------------------------------------------
                                               Max. Height   Min. Depth
                                   Hours       Above Crown    Below Rim
  Node                 Type      Surcharged         Meters       Meters
  ---------------------------------------------------------------------
  WS02004404           JUNCTION        0.74          0.054        2.726
  WS02004406           JUNCTION        0.47          0.027        2.423
  WS02004405           JUNCTION        0.57          0.041        2.759
  WS02006109           JUNCTION        2.84          0.284        1.536
  WS02006110           JUNCTION        1.05          0.109        1.741
  WS02006112           JUNCTION        1.20          0.193        1.487
  WS02006230           JUNCTION        0.60          0.082        1.488
  WS02006231           JUNCTION        0.89          0.107        1.423
  WS02006232           JUNCTION        3.00          0.239        1.241
  WS02006234           JUNCTION        1.13          0.126        1.114
  WS02006235           JUNCTION        1.97          0.160        1.130
  WS02006238           JUNCTION        2.47          0.175        1.255
  WS02006240           JUNCTION        1.13          0.083        1.307
  WS02006242           JUNCTION        1.84          0.123        0.697
  WS02006243           JUNCTION        0.18          0.028        0.742
  WS02006247           JUNCTION        0.01          0.001        0.759
  WS02006239           JUNCTION        1.23          0.109        1.181
  WS02006252           JUNCTION        2.63          0.193        0.907
  WS02006256           JUNCTION        0.01          1.050        0.000
  WS02006228           JUNCTION        2.66          0.339        1.861
  YS02001748           JUNCTION        5.04          1.190        0.000
  YS02001751           JUNCTION        5.19          1.200        0.000
  YS02001754           JUNCTION        5.39          1.150        0.000
  YS02001762           JUNCTION        5.64          1.078        0.072
  YS02001765           JUNCTION        5.61          1.006        0.094
  YS02001767           JUNCTION        5.59          0.973        0.057
  YS02001770           JUNCTION        5.56          0.920        0.000
  YS02001774           JUNCTION        5.63          1.011        0.039
  YS02001779           JUNCTION        5.38          0.680        0.000
  YS02001882           JUNCTION        0.81          0.612        0.218
  YS02001884           JUNCTION        0.84          0.652        0.218
  YS02001759           JUNCTION        5.66          1.117        0.093
  YS02001887           JUNCTION        0.93          0.744        0.206
  YS02001890           JUNCTION        0.97          0.757        0.003
  YS02001898           JUNCTION        0.76          0.522        0.218
  YS02001901           JUNCTION        0.89          0.672        0.198
  YS02001904           JUNCTION        0.87          0.637        0.213
  YS02001907           JUNCTION        1.50          0.950        0.000
  YS02001910           JUNCTION        1.01          0.776        0.324
  YS02001915           JUNCTION        0.79          0.590        0.410
  YS02001918           JUNCTION        0.53          0.259        0.551
  YS02001619           JUNCTION        5.21          0.610        0.000
  YS02001629           JUNCTION        5.23          0.470        0.000
  YS02001641           JUNCTION        5.62          0.958        0.142
  YS02001644           JUNCTION        5.62          0.920        0.000
  YS02001652           JUNCTION        5.41          1.130        0.000
  YS02001655           JUNCTION        5.22          1.200        0.000
  YS02001920           JUNCTION        0.57          0.337        0.803
  YS02001658           JUNCTION        5.07          1.300        0.000
  YS02001661           JUNCTION        0.23          1.390        0.000
  YS02001622           JUNCTION        5.25          0.620        0.000
  YS02001633           JUNCTION        5.60          1.006        0.054
  YS02001649           JUNCTION        5.64          1.050        0.000
  YS02001757           JUNCTION        5.74          1.210        0.000
  YS02001895           JUNCTION        0.78          0.555        0.195
  YS02001625           JUNCTION        5.46          0.780        0.000
  YS02163301           JUNCTION        5.58          0.947        0.083
  YS02163601           JUNCTION        5.64          1.045        0.035
  YS02164001           JUNCTION        5.61          0.965        0.135
  YS02001647           JUNCTION        5.42          0.805        0.095
  YS02006553           JUNCTION        1.55          0.965        0.225
  YS02006561           JUNCTION        0.67          0.281        0.869
  YS02006556           JUNCTION        1.25          0.878        0.472
  YS02006558           JUNCTION        1.21          0.859        0.541
  YS02001783           JUNCTION        1.35          1.276        0.324
  YS02001784           JUNCTION        1.40          1.155        0.335
  YS02001786           JUNCTION        1.36          1.430        0.000
  YS02001788           JUNCTION        1.35          1.139        0.341
  YS02001790           JUNCTION        1.99          1.157        0.000
  YS02001791           JUNCTION        2.02          0.949        0.971
  YS02001793           JUNCTION        2.28          1.935        0.665
  
  
  *********************
  Node Flooding Summary
  *********************
  
  Flooding refers to all water that overflows a node, whether it ponds or not.
  --------------------------------------------------------------------------
                                                             Total   Maximum
                                 Maximum   Time of Max       Flood    Ponded
                        Hours       Rate    Occurrence      Volume     Depth
  Node                 Flooded       LPS   days hr:min    10^6 ltr    Meters
  --------------------------------------------------------------------------
  WS02006256              0.01    406.11      0  00:00       0.001     0.000
  YS02001748              0.01    241.45      0  02:42       0.000     0.000
  YS02001751              0.01      3.39      0  02:42       0.000     0.000
  YS02001754              0.01     17.61      0  02:42       0.000     0.000
  YS02001770              0.01      5.51      0  02:44       0.000     0.000
  YS02001779              2.31    216.42      0  03:20       0.727     0.000
  YS02001907              0.39    277.03      0  02:58       0.212     0.000
  YS02001619              0.01     36.53      0  02:41       0.000     0.000
  YS02001629              0.01     34.86      0  02:40       0.001     0.000
  YS02001644              3.58    921.69      0  03:20       5.412     0.000
  YS02001652              0.01     15.58      0  03:10       0.000     0.000
  YS02001655              0.01    203.32      0  02:34       0.000     0.000
  YS02001658              0.01    332.09      0  02:41       0.001     0.000
  YS02001661              0.01    148.92      0  03:12       0.001     0.000
  YS02001622              0.01     53.26      0  02:40       0.000     0.000
  YS02001649              0.09     45.44      0  03:10       0.005     0.000
  YS02001757              0.01     19.89      0  02:44       0.000     0.000
  YS02001625              0.90    167.92      0  03:01       0.231     0.000
  YS02001786              0.01     54.93      0  02:32       0.000     0.000
  YS02001790              0.01    106.38      0  02:31       0.000     0.000
  JK-storage              1.90    836.70      0  03:30       2.952     0.000
  XR-storage              4.29    440.90      0  03:10       2.817     0.000
  
  
  **********************
  Storage Volume Summary
  **********************
  
  --------------------------------------------------------------------------------------------------
                         Average     Avg  Evap Exfil       Maximum     Max    Time of Max    Maximum
                          Volume    Pcnt  Pcnt  Pcnt        Volume    Pcnt     Occurrence    Outflow
  Storage Unit           1000 m3    Full  Loss  Loss       1000 m3    Full    days hr:min        LPS
  --------------------------------------------------------------------------------------------------
  JK-storage               0.134      46     0     0         0.291     100       0  02:32     600.00
  CC-storage               3.003      19     0     0         3.834      24       0  03:53     400.00
  XR-storage               0.844      91     0     0         0.926     100       0  02:38     380.00
  
  
  ***********************
  Outfall Loading Summary
  ***********************
  
  -----------------------------------------------------------
                         Flow       Avg       Max       Total
                         Freq      Flow      Flow      Volume
  Outfall Node           Pcnt       LPS       LPS    10^6 ltr
  -----------------------------------------------------------
  WSC                   99.99    635.48    957.98      15.768
  3                     94.10    216.01    597.65       4.433
  4                     48.85     55.78    201.88       0.621
  5                      0.00      0.00      0.00       0.000
  -----------------------------------------------------------
  System                60.74    907.27   1472.69      20.822
  
  
  ********************
  Link Flow Summary
  ********************
  
  -----------------------------------------------------------------------------
                                 Maximum  Time of Max   Maximum    Max/    Max/
                                  |Flow|   Occurrence   |Veloc|    Full    Full
  Link                 Type          LPS  days hr:min     m/sec    Flow   Depth
  -----------------------------------------------------------------------------
  WS02003066WSF200     CONDUIT    658.91     0  03:06      2.88    0.11    0.26
  WS02006287WS02006284 CONDUIT    375.44     0  03:02      1.98    0.17    0.29
  WS02006284WS02006280 CONDUIT    375.54     0  03:02      2.22    0.16    0.27
  WS02006280WS02006229 CONDUIT    375.58     0  03:02      3.58    0.08    0.19
  WS02006229WS02006228 CONDUIT    652.30     0  03:02      1.30    2.16    1.00
  WS02006256WS02006235 CONDUIT    177.52     0  00:01      2.73    1.88    1.00
  WS02006253WS02006251 CONDUIT     80.79     0  03:01      0.46    0.24    0.99
  WS02006252WS02006251 CONDUIT    400.39     0  05:56      3.19    1.47    1.00
  WS02006251WS02006249 CONDUIT    459.78     0  02:40      1.21    1.33    0.96
  WS02006249WS02006248 CONDUIT    350.88     0  04:40      1.15    1.92    0.91
  WS02006248WS02006247 CONDUIT    345.22     0  05:10      1.11    0.75    0.96
  WS02006247WS02006245 CONDUIT    338.75     0  05:11      1.07    2.69    1.00
  WS02006245WS02006243 CONDUIT    332.02     0  04:01      1.07    0.98    1.00
  WS02006243WS02006242 CONDUIT    321.12     0  04:01      0.93    0.69    1.00
  WS02006242WS02006240 CONDUIT    312.47     0  06:21      0.85    1.24    1.00
  WS02006240WS02006239 CONDUIT    310.50     0  06:00      0.85    0.98    1.00
  WS02006239WS02006238 CONDUIT    310.52     0  06:00      0.82    0.99    1.00
  WS02006238WS02006235 CONDUIT    310.71     0  03:30      1.32    0.69    1.00
  WS02006235WS02006234 CONDUIT    392.11     0  05:41      1.04    4.14    1.00
  WS02006234WS02006232 CONDUIT    389.64     0  05:42      1.17    0.79    1.00
  WS02006232WS02006231 CONDUIT    389.56     0  05:42      1.06    0.82    1.00
  WS02006231WS02006230 CONDUIT    388.85     0  05:43      1.35    5.90    1.00
  WS02006230WS02006229 CONDUIT    398.98     0  05:44      1.04    8.88    1.00
  WS02006228WS02006109 CONDUIT    652.21     0  03:02      1.30    2.85    1.00
  WS02006116WS02004401 CONDUIT    660.47     0  03:04      0.85    0.91    0.96
  WS02006115WS02006116 CONDUIT    661.47     0  03:03      0.90    0.85    0.89
  WS02006113WS02006111 CONDUIT    687.38     0  03:02      2.60    0.82    0.53
  WS02006112WS02006115 CONDUIT    664.08     0  03:02      0.87    0.39    0.94
  WS02006111WS02006112 CONDUIT    651.55     0  03:03      1.71    0.31    0.71
  WS02006110WS02006113 CONDUIT    654.94     0  03:02      1.49    0.60    0.82
  WS02006109WS02006110 CONDUIT    653.37     0  03:02      1.30    1.26    1.00
  WS02004411WS02004412 CONDUIT    658.90     0  03:05      1.03    0.94    0.76
  WS02004401WS02004402 CONDUIT    660.13     0  03:04      0.85    0.79    0.98
  WS02004413WS02003067 CONDUIT    658.74     0  03:06      1.25    0.28    0.64
  WS02004412WS02004413 CONDUIT    658.84     0  03:05      0.94    0.44    0.84
  WS02004410WS02004411 CONDUIT    659.13     0  03:05      1.03    0.90    0.76
  WS02004409WS02004410 CONDUIT    659.36     0  03:05      1.04    0.85    0.75
  WS02004407WS02004409 CONDUIT    659.77     0  03:04      1.53    0.23    0.54
  WS02004406WS02004407 CONDUIT    659.92     0  03:04      1.19    0.29    0.66
  WS02004405WS02004406 CONDUIT    659.84     0  03:04      0.84    1.30    1.00
  WS02004404WS02004405 CONDUIT    659.77     0  03:04      0.84    6.46    1.00
  WS02004403WS02004404 CONDUIT    659.58     0  03:04      0.84    0.48    1.00
  WS02004402WS02004403 CONDUIT    659.75     0  03:04      0.84    0.95    0.99
  WS02004139WS02001211 CONDUIT    380.20     0  07:20      0.80    0.48    0.58
  WS02004138WS02004139 CONDUIT    380.00     0  07:12      3.34    0.08    0.43
  WS02003067WS02003066 CONDUIT    658.85     0  03:06      1.35    0.21    0.45
  WS02001213WS02003059 CONDUIT    387.17     0  07:20      0.80    0.64    0.75
  WS02001212WS02001213 CONDUIT    387.34     0  07:20      1.31    0.60    0.45
  WS02001211WS02001212 CONDUIT    387.42     0  07:20      0.77    0.30    0.63
  WS02003072WS02003073 CONDUIT    956.34     0  03:03      1.74    2.07    0.49
  WS02003069WS02003072 CONDUIT    956.44     0  03:03      1.63    0.46    0.51
  WS02003060WS02003069 CONDUIT    956.31     0  03:02      1.87    0.37    0.46
  WS02003059WS02003060 CONDUIT    386.90     0  07:20      0.93    0.25    0.66
  HS02004901HS02004770 CONDUIT     17.71     0  03:01      0.07    0.07    0.39
  HS02004876HS02004881 CONDUIT     71.90     0  03:01      0.92    0.76    0.11
  HS02004870HS02004876 CONDUIT     58.03     0  03:01      0.63    0.04    0.13
  HS02004842HS02004848 CONDUIT     11.42     0  03:01      0.05    0.01    0.30
  HS02004837HS02004842 CONDUIT     11.94     0  03:02      0.41    0.01    0.32
  HS02004830HS02004837 CONDUIT     41.69     0  03:01      0.56    0.04    0.11
  HS02004824HS02004830 CONDUIT     41.67     0  03:01      0.58    0.05    0.10
  HS02004817HS02004824 CONDUIT     81.58     0  03:01      0.25    0.04    0.47
  HS02004770HS02004777 CONDUIT     90.21     0  03:01      0.32    0.16    0.41
  HS02004799HS02004480 CONDUIT    226.97     0  03:01      0.78    0.29    0.42
  HS02004792HS02004799 CONDUIT    206.60     0  03:01      0.88    0.13    0.33
  HS02004788HS02004792 CONDUIT    118.94     0  03:01      1.01    0.08    0.17
  HS02004785HS02004788 CONDUIT     89.52     0  03:02      0.66    0.67    0.19
  HS02004777HS02004785 CONDUIT     89.64     0  03:01      0.38    0.11    0.33
  HS02004480HS02004478 CONDUIT    269.12     0  03:01      1.20    1.13    0.32
  HS02004479HS02004480 CONDUIT     44.17     0  03:02      0.23    0.04    0.40
  HS02004862HS02004870 CONDUIT     44.23     0  03:01      0.64    0.05    0.10
  HS02004848HS02004852 CONDUIT     20.44     0  03:01      0.44    0.02    0.07
  HS02004856HS02004862 CONDUIT     30.57     0  03:01      0.47    0.03    0.09
  HS02004852HS02004856 CONDUIT     20.26     0  03:01      0.24    0.02    0.12
  HS02004802HS02004478 CONDUIT    106.59     0  03:02      0.45    0.09    0.35
  HS02004478WS02006287 CONDUIT    375.26     0  03:01      1.68    0.11    0.25
  HS02004817HS02004807 CONDUIT     82.18     0  03:01      0.19    0.05    0.62
  HS02004807HS02004802 CONDUIT    106.49     0  03:01      0.38    0.20    0.40
  YS02001759YS02001757 CONDUIT    675.19     0  02:56      0.86    0.48    1.00
  YS02001762YS02001759 CONDUIT    343.53     0  02:56      0.44    0.40    1.00
  YS02001765YS02001762 CONDUIT    343.34     0  02:56      0.44    0.32    1.00
  YS02001770YS02001767 CONDUIT    343.11     0  02:56      0.44    1.36    1.00
  YS02001774YS02001770 CONDUIT    216.12     0  03:20      0.28    0.14    1.00
  YS02001779YS02001774 CONDUIT    216.62     0  03:20      0.28    0.11    1.00
  YS02001649YS02001757 CONDUIT    948.44     0  02:51      1.21    0.58    1.00
  YS02001767YS02001765 CONDUIT    343.62     0  02:56      0.44    0.43    1.00
  YS02006561YS02001783 CONDUIT    964.09     0  03:00      2.10    0.50    1.00
  YS02001783YS02001784 CONDUIT    964.07     0  03:00      1.92    1.33    1.00
  YS02001784YS02001785 CONDUIT    965.17     0  03:00      1.92    2.25    1.00
  YS02001788YS02001790 CONDUIT    965.27     0  03:00      2.24    0.71    1.00
  YS02001790YS02001791 CONDUIT    965.51     0  03:00      2.64    1.05    1.00
  YS02001791YS02001793 CONDUIT    965.53     0  03:00      5.31    0.41    1.00
  YS02001910YS02001907 CONDUIT    431.62     0  02:54      0.55    0.24    1.00
  YS02001786YS02001788 CONDUIT    965.18     0  03:01      2.15    1.86    1.00
  YS02001915YS02001910 CONDUIT    431.62     0  02:54      0.55    0.21    1.00
  YS02001918YS02001915 CONDUIT    196.91     0  02:54      0.44    0.11    1.00
  YS02001923YS02001920 CONDUIT    194.93     0  02:54      0.68    0.09    1.00
  YS02001926YS02001923 CONDUIT    208.32     0  02:54      0.79    0.30    0.89
  YS02001929YS02001926 CONDUIT    179.38     0  02:54      0.84    0.09    0.79
  YS02001920YS02001918 CONDUIT    197.70     0  02:54      0.67    0.19    1.00
  YS02001629YS02163301 CONDUIT    216.19     0  02:39      0.28    0.27    1.00
  YS02001619YS02001622 CONDUIT    257.41     0  03:00      0.61    0.38    1.00
  YS02001622YS02001625 CONDUIT    257.37     0  03:01      0.33    0.14    1.00
  YS02001625YS02001629 CONDUIT    209.24     0  02:50      0.27    0.10    1.00
  YS02163301YS02001633 CONDUIT    215.84     0  02:39      0.27    0.20    1.00
  YS02163601YS02164001 CONDUIT    444.40     0  02:50      0.57    0.39    1.00
  YS02164001YS02001641 CONDUIT    444.36     0  02:50      0.57    0.61    1.00
  YS02001641YS02001644 CONDUIT    444.24     0  02:50      0.57    1.44    1.00
  YS02001647YS02001649 CONDUIT    676.18     0  02:50      0.86    0.36    1.00
  YS02006553YS02006556 CONDUIT    666.46     0  03:17      0.85    0.57    1.00
  YS02006556YS02006558 CONDUIT    666.61     0  03:17      0.85    0.53    1.00
  YSB6556YSB1171       CONDUIT     24.81     0  03:03      0.09    0.03    0.67
  YS02001907YS02006553 CONDUIT    666.46     0  03:17      0.74    0.78    1.00
  YS02006558YS02006561 CONDUIT    964.07     0  03:00      3.41    2.13    1.00
  YS02001633YS02163601 CONDUIT    444.47     0  02:50      0.57    0.47    1.00
  YS02001644YS02001647 CONDUIT    675.68     0  02:50      0.86    0.40    1.00
  YS02001745YS02001748 CONDUIT    617.05     0  02:42      1.48    0.24    0.93
  YS02001748YS02001751 CONDUIT    355.42     0  02:38      1.05    0.18    1.00
  YS02001751YS02001754 CONDUIT    309.69     0  03:01      0.88    0.15    1.00
  YS02001754YS02001757 CONDUIT    309.85     0  03:01      0.39    0.12    1.00
  YS02001882YS02001884 CONDUIT     26.72     0  02:35      0.09    0.03    1.00
  YS02001884YS02001887 CONDUIT     51.15     0  02:34      0.08    0.07    1.00
  YS02001890YS02001895 CONDUIT    453.50     0  03:01      0.58    0.21    1.00
  YS02001895YS02001898 CONDUIT    453.41     0  03:01      0.58    0.79    1.00
  YS02001898YS02001901 CONDUIT    453.71     0  03:01      0.58    0.29    1.00
  YS02001901YS02001904 CONDUIT    453.66     0  03:01      0.58    0.70    1.00
  YS02001904YS02001907 CONDUIT    453.78     0  03:01      0.58    0.16    1.00
  YS02001887YS02001890 CONDUIT    453.39     0  03:00      0.58    0.78    1.00
  YS02001652YS02001649 CONDUIT    373.14     0  03:01      0.50    0.18    1.00
  YS02001655YS02001652 CONDUIT    373.41     0  03:01      0.93    0.18    1.00
  YS02001658YS02001655 CONDUIT    374.94     0  02:34      1.21    0.16    1.00
  YS02001661YS02001658 CONDUIT    649.68     0  02:40      1.56    0.25    1.00
  YS02001664YS02001661 CONDUIT    697.26     0  02:54      1.59    0.22    0.71
  YSB1154YSB6556       CONDUIT     24.91     0  03:01      0.19    0.04    0.56
  YSB1174YSB1171       CONDUIT     18.78     0  03:01      0.07    0.03    0.68
  YSB1171HS02004479    CONDUIT     42.82     0  03:02      0.54    0.03    0.53
  HS02004881HS02006253 CONDUIT     79.15     0  03:01      1.74    0.02    0.29
  YS02001793JiankangQianchi CONDUIT    965.48     0  03:00     13.98    0.08    1.00
  YS02001757CaochengTiaoxuchi CONDUIT   1802.56     0  02:51      2.42    0.79    1.00
  WSF200WS02003060     CONDUIT    659.61     0  03:06      1.96    0.15    0.36
  1                    CONDUIT    957.98     0  03:04      3.29    0.33    0.40
  2                    CONDUIT    201.88     0  02:40      5.85    0.48    0.49
  3                    CONDUIT    597.65     0  00:00     10.05    0.95    0.86
  4                    CONDUIT      0.00     0  00:00      0.00    0.00    0.00
  CC-Pump-1            PUMP       200.00     0  02:20              1.00
  CC-Pump-2            PUMP       200.00     0  02:10              1.00
  JK-Pump-1            PUMP       300.00     0  00:00              1.00
  JK-Pump-2            PUMP       300.00     0  00:00              1.00
  XR-Pump-1            PUMP        95.00     0  00:00              1.00
  XR-Pump-2            PUMP        95.00     0  00:00              1.00
  XR-Pump-3            PUMP        95.00     0  00:00              1.00
  XR-Pump-4            PUMP        95.00     0  00:20              1.00
  
  
  ***************************
  Flow Classification Summary
  ***************************
  
  -------------------------------------------------------------------------------------
                      Adjusted    ---------- Fraction of Time in Flow Class ---------- 
                       /Actual         Up    Down  Sub   Sup   Up    Down  Norm  Inlet 
  Conduit               Length    Dry  Dry   Dry   Crit  Crit  Crit  Crit  Ltd   Ctrl  
  -------------------------------------------------------------------------------------
  WS02003066WSF200        1.00   0.03  0.03  0.00  0.00  0.94  0.00  0.00  0.58  0.00
  WS02006287WS02006284    1.00   0.03  0.01  0.00  0.59  0.37  0.00  0.00  0.65  0.00
  WS02006284WS02006280    1.00   0.03  0.00  0.00  0.00  0.00  0.00  0.97  0.00  0.00
  WS02006280WS02006229    1.00   0.03  0.00  0.00  0.00  0.00  0.00  0.97  0.00  0.00
  WS02006229WS02006228    1.00   0.00  0.00  0.00  0.99  0.00  0.00  0.01  0.00  0.00
  WS02006256WS02006235    1.00   0.00  0.00  0.00  1.00  0.00  0.00  0.00  0.00  0.00
  WS02006253WS02006251    1.00   0.02  0.01  0.00  0.97  0.00  0.00  0.00  0.00  0.00
  WS02006252WS02006251    1.00   0.06  0.00  0.00  0.00  0.00  0.94  0.00  0.00  0.00
  WS02006251WS02006249    1.00   0.00  0.00  0.00  1.00  0.00  0.00  0.00  0.23  0.00
  WS02006249WS02006248    1.00   0.00  0.01  0.00  0.93  0.00  0.06  0.00  0.00  0.00
  WS02006248WS02006247    1.00   0.02  0.00  0.00  0.98  0.00  0.00  0.01  0.11  0.00
  WS02006247WS02006245    1.00   0.02  0.00  0.00  0.97  0.00  0.00  0.02  0.00  0.00
  WS02006245WS02006243    1.00   0.01  0.00  0.00  0.95  0.00  0.00  0.03  0.02  0.00
  WS02006243WS02006242    1.00   0.01  0.00  0.00  0.99  0.00  0.00  0.00  0.21  0.00
  WS02006242WS02006240    1.00   0.00  0.00  0.00  1.00  0.00  0.00  0.00  0.00  0.00
  WS02006240WS02006239    1.00   0.00  0.00  0.00  0.97  0.00  0.00  0.03  0.02  0.00
  WS02006239WS02006238    1.00   0.00  0.00  0.00  1.00  0.00  0.00  0.00  0.00  0.00
  WS02006238WS02006235    1.00   0.00  0.00  0.00  1.00  0.00  0.00  0.00  0.00  0.00
  WS02006235WS02006234    1.00   0.00  0.00  0.00  0.96  0.00  0.04  0.00  0.00  0.00
  WS02006234WS02006232    1.00   0.00  0.00  0.00  1.00  0.00  0.00  0.00  0.05  0.00
  WS02006232WS02006231    1.00   0.00  0.00  0.00  0.99  0.00  0.01  0.00  0.00  0.00
  WS02006231WS02006230    1.00   0.00  0.00  0.00  0.73  0.00  0.27  0.00  0.00  0.00
  WS02006230WS02006229    1.00   0.00  0.00  0.00  0.99  0.00  0.00  0.01  0.01  0.00
  WS02006228WS02006109    1.00   0.00  0.00  0.00  1.00  0.00  0.00  0.00  0.00  0.00
  WS02006116WS02004401    1.00   0.02  0.00  0.00  0.98  0.00  0.00  0.00  0.00  0.00
  WS02006115WS02006116    1.00   0.02  0.00  0.00  0.97  0.00  0.00  0.01  0.01  0.00
  WS02006113WS02006111    1.00   0.02  0.00  0.00  0.00  0.98  0.00  0.00  0.09  0.00
  WS02006112WS02006115    1.00   0.02  0.00  0.00  0.98  0.00  0.00  0.00  0.00  0.00
  WS02006111WS02006112    1.00   0.02  0.00  0.00  0.98  0.00  0.00  0.00  0.91  0.00
  WS02006110WS02006113    1.00   0.01  0.00  0.00  0.98  0.00  0.00  0.00  0.00  0.00
  WS02006109WS02006110    1.00   0.00  0.01  0.00  0.98  0.00  0.00  0.00  0.00  0.00
  WS02004411WS02004412    1.00   0.04  0.00  0.00  0.96  0.00  0.00  0.00  0.00  0.00
  WS02004401WS02004402    1.00   0.02  0.00  0.00  0.98  0.00  0.00  0.00  0.00  0.00
  WS02004413WS02003067    1.00   0.05  0.01  0.00  0.00  0.00  0.94  0.00  0.00  0.00
  WS02004412WS02004413    1.00   0.04  0.00  0.00  0.95  0.00  0.00  0.00  0.01  0.00
  WS02004410WS02004411    1.00   0.04  0.00  0.00  0.96  0.00  0.00  0.00  0.00  0.00
  WS02004409WS02004410    1.00   0.04  0.00  0.00  0.96  0.00  0.00  0.00  0.00  0.00
  WS02004407WS02004409    1.00   0.04  0.00  0.00  0.95  0.00  0.00  0.00  0.80  0.00
  WS02004406WS02004407    1.00   0.00  0.04  0.00  0.96  0.00  0.00  0.00  0.00  0.00
  WS02004405WS02004406    1.00   0.00  0.00  0.00  1.00  0.00  0.00  0.00  0.02  0.00
  WS02004404WS02004405    1.00   0.00  0.00  0.00  1.00  0.00  0.00  0.00  0.00  0.00
  WS02004403WS02004404    1.00   0.00  0.02  0.00  0.98  0.00  0.00  0.00  0.02  0.00
  WS02004402WS02004403    1.00   0.02  0.00  0.00  0.98  0.00  0.00  0.00  0.00  0.00
  WS02004139WS02001211    1.00   0.00  0.00  0.00  0.99  0.00  0.00  0.00  0.00  0.00
  WS02004138WS02004139    1.00   0.00  0.00  0.00  0.99  0.01  0.00  0.00  1.00  0.00
  WS02003067WS02003066    1.00   0.06  0.00  0.00  0.94  0.00  0.00  0.00  0.00  0.00
  WS02001213WS02003059    1.00   0.00  0.00  0.00  0.99  0.00  0.00  0.00  0.00  0.00
  WS02001212WS02001213    1.00   0.00  0.00  0.00  0.91  0.00  0.08  0.00  0.00  0.00
  WS02001211WS02001212    1.00   0.00  0.00  0.00  1.00  0.00  0.00  0.00  0.00  0.00
  WS02003072WS02003073    1.00   0.00  0.00  0.00  0.00  0.00  0.00  1.00  0.00  0.00
  WS02003069WS02003072    1.00   0.00  0.00  0.00  0.99  0.01  0.00  0.00  0.19  0.00
  WS02003060WS02003069    1.00   0.00  0.00  0.00  0.98  0.02  0.00  0.00  0.11  0.00
  WS02003059WS02003060    1.00   0.00  0.00  0.00  0.99  0.01  0.00  0.00  0.01  0.00
  HS02004901HS02004770    1.00   0.03  0.00  0.00  0.97  0.00  0.00  0.00  0.00  0.00
  HS02004876HS02004881    1.00   0.02  0.00  0.00  0.90  0.08  0.00  0.00  0.00  0.00
  HS02004870HS02004876    1.00   0.01  0.00  0.00  0.99  0.00  0.00  0.00  0.95  0.00
  HS02004842HS02004848    1.00   0.00  0.03  0.00  0.97  0.00  0.00  0.00  0.58  0.00
  HS02004837HS02004842    1.00   0.00  0.00  0.00  0.99  0.01  0.00  0.00  0.11  0.00
  HS02004830HS02004837    1.00   0.00  0.00  0.00  1.00  0.00  0.00  0.00  0.99  0.00
  HS02004824HS02004830    1.00   0.00  0.00  0.00  1.00  0.00  0.00  0.00  0.00  0.00
  HS02004817HS02004824    1.00   0.00  0.00  0.00  1.00  0.00  0.00  0.00  1.00  0.00
  HS02004770HS02004777    1.00   0.00  0.03  0.00  0.97  0.00  0.00  0.00  0.03  0.00
  HS02004799HS02004480    1.00   0.00  0.02  0.00  0.96  0.00  0.02  0.00  0.00  0.00
  HS02004792HS02004799    1.00   0.00  0.00  0.00  0.99  0.01  0.00  0.00  0.98  0.00
  HS02004788HS02004792    1.00   0.00  0.00  0.00  0.99  0.01  0.00  0.00  0.98  0.00
  HS02004785HS02004788    1.00   0.00  0.00  0.00  1.00  0.00  0.00  0.00  0.00  0.00
  HS02004777HS02004785    1.00   0.00  0.00  0.00  1.00  0.00  0.00  0.00  0.14  0.00
  HS02004480HS02004478    1.00   0.03  0.00  0.00  0.66  0.00  0.00  0.30  0.00  0.00
  HS02004479HS02004480    1.00   0.02  0.00  0.00  0.98  0.00  0.00  0.00  0.13  0.00
  HS02004862HS02004870    1.00   0.00  0.00  0.00  1.00  0.00  0.00  0.00  0.05  0.00
  HS02004848HS02004852    1.00   0.03  0.00  0.00  0.97  0.00  0.00  0.00  0.61  0.00
  HS02004856HS02004862    1.00   0.00  0.04  0.00  0.96  0.00  0.00  0.00  0.80  0.00
  HS02004852HS02004856    1.00   0.03  0.00  0.00  0.96  0.00  0.00  0.00  0.85  0.00
  HS02004802HS02004478    1.00   0.03  0.00  0.00  0.96  0.00  0.00  0.00  0.03  0.00
  HS02004478WS02006287    1.00   0.04  0.00  0.00  0.73  0.23  0.00  0.00  0.66  0.00
  HS02004817HS02004807    1.00   0.00  0.03  0.00  0.97  0.00  0.00  0.00  0.01  0.00
  HS02004807HS02004802    1.00   0.03  0.00  0.00  0.96  0.00  0.00  0.00  0.00  0.00
  YS02001759YS02001757    1.00   0.00  0.00  0.00  1.00  0.00  0.00  0.00  0.16  0.00
  YS02001762YS02001759    1.00   0.00  0.00  0.00  1.00  0.00  0.00  0.00  0.03  0.00
  YS02001765YS02001762    1.00   0.00  0.00  0.00  1.00  0.00  0.00  0.00  0.16  0.00
  YS02001770YS02001767    1.00   0.00  0.00  0.00  1.00  0.00  0.00  0.00  0.00  0.00
  YS02001774YS02001770    1.00   0.00  0.03  0.00  0.97  0.00  0.00  0.00  0.04  0.00
  YS02001779YS02001774    1.00   0.00  0.00  0.00  1.00  0.00  0.00  0.00  0.21  0.00
  YS02001649YS02001757    1.00   0.00  0.00  0.00  1.00  0.00  0.00  0.00  0.17  0.00
  YS02001767YS02001765    1.00   0.00  0.00  0.00  1.00  0.00  0.00  0.00  0.00  0.00
  YS02006561YS02001783    1.00   0.05  0.00  0.00  0.33  0.63  0.00  0.00  0.55  0.00
  YS02001783YS02001784    1.00   0.00  0.05  0.00  0.95  0.00  0.00  0.00  0.01  0.00
  YS02001784YS02001785    1.00   0.00  0.00  0.00  1.00  0.00  0.00  0.00  0.20  0.00
  YS02001788YS02001790    1.00   0.00  0.00  0.00  0.40  0.60  0.00  0.00  0.49  0.00
  YS02001790YS02001791    1.00   0.00  0.00  0.00  0.39  0.61  0.00  0.00  0.47  0.00
  YS02001791YS02001793    1.00   0.00  0.00  0.00  0.39  0.61  0.00  0.00  0.01  0.00
  YS02001910YS02001907    1.00   0.00  0.00  0.00  0.98  0.00  0.00  0.02  0.13  0.00
  YS02001786YS02001788    1.00   0.00  0.00  0.00  0.38  0.62  0.00  0.00  0.00  0.00
  YS02001915YS02001910    1.00   0.00  0.00  0.00  0.99  0.01  0.00  0.00  0.18  0.00
  YS02001918YS02001915    1.00   0.00  0.01  0.00  0.99  0.00  0.00  0.00  0.58  0.00
  YS02001923YS02001920    1.00   0.00  0.00  0.00  1.00  0.00  0.00  0.00  0.85  0.00
  YS02001926YS02001923    1.00   0.00  0.02  0.00  0.15  0.00  0.83  0.00  0.00  0.00
  YS02001929YS02001926    1.00   0.00  0.03  0.00  0.97  0.00  0.00  0.00  0.78  0.00
  YS02001920YS02001918    1.00   0.00  0.01  0.00  0.99  0.00  0.00  0.00  0.00  0.00
  YS02001629YS02163301    1.00   0.04  0.00  0.00  0.96  0.00  0.00  0.00  0.00  0.00
  YS02001619YS02001622    1.00   0.03  0.00  0.00  0.97  0.00  0.00  0.00  0.00  0.00
  YS02001622YS02001625    1.00   0.03  0.00  0.00  0.97  0.00  0.00  0.00  0.07  0.00
  YS02001625YS02001629    1.00   0.03  0.01  0.00  0.94  0.00  0.01  0.00  0.00  0.00
  YS02163301YS02001633    1.00   0.00  0.04  0.00  0.96  0.00  0.00  0.00  0.00  0.00
  YS02163601YS02164001    1.00   0.00  0.03  0.00  0.97  0.00  0.00  0.00  0.00  0.00
  YS02164001YS02001641    1.00   0.01  0.02  0.00  0.97  0.00  0.00  0.00  0.06  0.00
  YS02001641YS02001644    1.00   0.00  0.01  0.00  0.99  0.00  0.00  0.00  0.00  0.00
  YS02001647YS02001649    1.00   0.00  0.04  0.00  0.96  0.00  0.00  0.00  0.01  0.00
  YS02006553YS02006556    1.00   0.01  0.00  0.00  0.99  0.00  0.00  0.00  0.03  0.00
  YS02006556YS02006558    1.00   0.00  0.00  0.00  1.00  0.00  0.00  0.00  0.00  0.00
  YSB6556YSB1171          1.00   0.02  0.01  0.00  0.97  0.00  0.00  0.00  0.00  0.00
  YS02001907YS02006553    1.00   0.00  0.01  0.00  0.98  0.00  0.00  0.00  0.00  0.00
  YS02006558YS02006561    1.00   0.05  0.00  0.00  0.19  0.76  0.00  0.00  0.47  0.00
  YS02001633YS02163601    1.00   0.00  0.01  0.00  0.99  0.00  0.00  0.00  0.16  0.00
  YS02001644YS02001647    1.00   0.00  0.04  0.00  0.96  0.00  0.00  0.00  0.00  0.00
  YS02001745YS02001748    1.00   0.00  0.00  0.00  0.90  0.01  0.00  0.09  0.05  0.00
  YS02001748YS02001751    1.00   0.00  0.00  0.00  0.98  0.02  0.00  0.00  0.15  0.00
  YS02001751YS02001754    1.00   0.00  0.00  0.00  0.95  0.00  0.00  0.05  0.02  0.00
  YS02001754YS02001757    1.00   0.00  0.00  0.00  0.99  0.01  0.00  0.00  0.20  0.00
  YS02001882YS02001884    1.00   0.04  0.00  0.00  0.96  0.00  0.00  0.00  0.00  0.00
  YS02001884YS02001887    1.00   0.02  0.01  0.00  0.97  0.00  0.00  0.00  0.00  0.00
  YS02001890YS02001895    1.00   0.00  0.04  0.00  0.96  0.00  0.00  0.00  0.00  0.00
  YS02001895YS02001898    1.00   0.04  0.00  0.00  0.95  0.00  0.01  0.00  0.00  0.00
  YS02001898YS02001901    1.00   0.04  0.00  0.00  0.96  0.00  0.00  0.00  0.02  0.00
  YS02001901YS02001904    1.00   0.04  0.00  0.00  0.96  0.00  0.00  0.00  0.00  0.00
  YS02001904YS02001907    1.00   0.00  0.04  0.00  0.96  0.00  0.00  0.00  0.00  0.00
  YS02001887YS02001890    1.00   0.00  0.00  0.00  0.98  0.00  0.01  0.00  0.00  0.00
  YS02001652YS02001649    1.00   0.00  0.00  0.00  1.00  0.00  0.00  0.00  0.18  0.00
  YS02001655YS02001652    1.00   0.00  0.00  0.00  0.95  0.00  0.00  0.05  0.02  0.00
  YS02001658YS02001655    1.00   0.00  0.04  0.00  0.94  0.02  0.00  0.00  0.11  0.00
  YS02001661YS02001658    1.00   0.04  0.00  0.00  0.90  0.06  0.00  0.00  0.06  0.00
  YS02001664YS02001661    1.00   0.03  0.00  0.00  0.87  0.09  0.00  0.00  0.22  0.00
  YSB1154YSB6556          1.00   0.03  0.00  0.00  0.97  0.00  0.00  0.00  0.02  0.00
  YSB1174YSB1171          1.00   0.02  0.01  0.00  0.97  0.00  0.00  0.00  0.00  0.00
  YSB1171HS02004479       1.00   0.02  0.00  0.00  0.98  0.00  0.00  0.00  0.11  0.00
  HS02004881HS02006253    1.00   0.02  0.00  0.00  0.83  0.01  0.00  0.13  0.68  0.00
  YS02001793JiankangQianchi    1.00   0.00  0.00  0.00  0.56  0.44  0.00  0.00  0.13  0.00
  YS02001757CaochengTiaoxuchi    1.00   0.00  0.06  0.00  0.93  0.01  0.00  0.00  0.00  0.00
  WSF200WS02003060        1.00   0.00  0.03  0.00  0.63  0.33  0.00  0.00  0.27  0.00
  1                       1.00   0.00  0.00  0.00  0.00  1.00  0.00  0.00  0.30  0.00
  2                       1.00   0.51  0.00  0.00  0.00  0.49  0.00  0.00  0.11  0.00
  3                       1.00   0.06  0.00  0.00  0.00  0.94  0.00  0.00  0.01  0.00
  4                       1.00   1.00  0.00  0.00  0.00  0.00  0.00  0.00  0.00  0.00
  
  
  *************************
  Conduit Surcharge Summary
  *************************
  
  ----------------------------------------------------------------------------
                                                           Hours        Hours 
                         --------- Hours Full --------   Above Full   Capacity
  Conduit                Both Ends  Upstream  Dnstream   Normal Flow   Limited
  ----------------------------------------------------------------------------
  WS02006229WS02006228        2.66      3.00      2.66      5.47         2.66
  WS02006256WS02006235        6.02      6.02      7.43      2.72         0.01
  WS02006253WS02006251        0.01      0.01      0.04      0.01         0.01
  WS02006252WS02006251        1.15      1.15      2.63      2.25         0.01
  WS02006251WS02006249        0.01      0.01      0.01      1.35         0.01
  WS02006249WS02006248        0.01      0.01      0.01      5.11         0.01
  WS02006248WS02006247        0.01      0.01      0.01      0.01         0.01
  WS02006247WS02006245        0.01      0.05      0.01      5.35         0.01
  WS02006245WS02006243        0.03      0.03      0.18      0.01         0.01
  WS02006243WS02006242        0.31      0.31      1.83      0.01         0.01
  WS02006242WS02006240        1.13      1.13      2.46      2.50         0.01
  WS02006240WS02006239        1.19      1.19      1.23      0.01         0.01
  WS02006239WS02006238        2.30      2.30      2.47      0.01         0.01
  WS02006238WS02006235        2.28      2.28      2.83      0.01         0.01
  WS02006235WS02006234        1.13      1.13      1.97      6.04         0.01
  WS02006234WS02006232        1.26      1.26      2.99      0.01         0.01
  WS02006232WS02006231        0.89      0.89      2.99      0.01         0.01
  WS02006231WS02006230        0.60      0.60      0.93      6.01         0.01
  WS02006230WS02006229        3.95      5.21      3.95      6.10         3.95
  WS02006228WS02006109        2.84      3.47      2.84      5.88         2.84
  WS02006112WS02006115        0.01      0.01      1.20      0.01         0.01
  WS02006111WS02006112        0.01      0.01      5.58      0.01         0.01
  WS02006110WS02006113        0.01      0.01      3.23      0.01         0.01
  WS02006109WS02006110        1.05      1.05      3.48      1.05         0.01
  WS02004406WS02004407        0.01      0.01      0.47      0.01         0.01
  WS02004405WS02004406        0.47      0.57      0.47      1.13         0.47
  WS02004404WS02004405        0.57      0.74      0.57      6.00         0.57
  WS02004403WS02004404        0.01      0.01      0.74      0.01         0.01
  WS02003072WS02003073        0.01      0.01      0.01      5.58         0.01
  HS02004480HS02004478        0.01      0.01      0.01      0.25         0.01
  YS02001759YS02001757        5.66      5.66      5.74      0.01         0.01
  YS02001762YS02001759        5.64      5.64      5.66      0.01         0.01
  YS02001765YS02001762        5.61      5.61      5.64      0.01         0.01
  YS02001770YS02001767        5.58      5.58      5.59      0.33         0.85
  YS02001774YS02001770        5.56      5.56      5.63      0.01         0.01
  YS02001779YS02001774        5.38      5.38      5.63      0.01         0.01
  YS02001649YS02001757        5.64      5.64      5.74      0.01         0.01
  YS02001767YS02001765        5.59      5.59      5.61      0.01         0.01
  YS02006561YS02001783        0.67      0.67      1.35      0.01         0.01
  YS02001783YS02001784        1.35      1.35      1.40      1.06         1.02
  YS02001784YS02001785        1.36      1.40      1.36      2.07         1.35
  YS02001788YS02001790        1.35      1.35      1.99      0.01         0.01
  YS02001790YS02001791        1.99      1.99      2.02      0.49         0.49
  YS02001791YS02001793        2.02      2.02      2.32      0.01         0.01
  YS02001910YS02001907        1.01      1.01      1.50      0.01         0.01
  YS02001786YS02001788        1.35      1.36      1.35      1.68         1.35
  YS02001915YS02001910        0.79      0.79      1.01      0.01         0.01
  YS02001918YS02001915        0.53      0.53      0.79      0.01         0.01
  YS02001923YS02001920        0.31      0.31      0.57      0.01         0.01
  YS02001920YS02001918        0.53      0.53      0.57      0.01         0.01
  YS02001629YS02163301        5.57      5.57      5.58      0.01         0.01
  YS02001619YS02001622        5.21      5.21      5.25      0.01         0.01
  YS02001622YS02001625        5.25      5.25      5.46      0.01         0.01
  YS02001625YS02001629        5.23      5.23      5.46      0.01         0.01
  YS02163301YS02001633        5.58      5.58      5.61      0.01         0.01
  YS02163601YS02164001        5.61      5.61      5.64      0.01         0.01
  YS02164001YS02001641        5.61      5.61      5.62      0.01         0.03
  YS02001641YS02001644        5.62      5.62      5.62      1.22         1.49
  YS02001647YS02001649        5.42      5.42      5.64      0.01         0.01
  YS02006553YS02006556        1.25      1.25      1.55      0.01         0.01
  YS02006556YS02006558        1.37      1.37      1.63      0.01         0.01
  YS02001907YS02006553        2.09      2.09      2.30      0.01         0.01
  YS02006558YS02006561        0.90      1.21      0.90      1.94         0.90
  YS02001633YS02163601        5.60      5.60      5.64      0.01         0.01
  YS02001644YS02001647        5.42      5.42      5.62      0.01         0.01
  YS02001745YS02001748        0.01      0.01      5.04      0.01         0.01
  YS02001748YS02001751        5.09      5.09      5.19      0.01         0.01
  YS02001751YS02001754        5.19      5.19      5.39      0.01         0.01
  YS02001754YS02001757        5.41      5.41      5.74      0.01         0.01
  YS02001882YS02001884        0.81      0.81      0.84      0.01         0.01
  YS02001884YS02001887        0.90      0.90      0.93      0.01         0.01
  YS02001890YS02001895        0.78      0.78      1.04      0.01         0.01
  YS02001895YS02001898        0.76      0.76      0.78      0.01         0.01
  YS02001898YS02001901        0.78      0.78      0.89      0.01         0.01
  YS02001901YS02001904        0.87      0.87      0.89      0.01         0.01
  YS02001904YS02001907        0.87      0.87      1.59      0.01         0.01
  YS02001887YS02001890        0.97      0.97      0.99      0.01         0.01
  YS02001652YS02001649        5.42      5.42      5.64      0.01         0.01
  YS02001655YS02001652        5.22      5.22      5.41      0.01         0.01
  YS02001658YS02001655        5.07      5.07      5.22      0.01         0.01
  YS02001661YS02001658        0.21      0.21      5.07      0.01         0.01
  YS02001664YS02001661        0.01      0.01      0.96      0.01         0.01
  YS02001793JiankangQianchi        2.28      2.28      3.32      0.01         0.01
  YS02001757CaochengTiaoxuchi        4.87      4.87      5.74      0.01         0.01
  3                           0.01      0.01      0.01      0.01         0.01
  
  
  ***************
  Pumping Summary
  ***************
  
  ---------------------------------------------------------------------------------------------------------
                                                  Min       Avg       Max     Total     Power    % Time Off
                        Percent   Number of      Flow      Flow      Flow    Volume     Usage    Pump Curve
  Pump                 Utilized   Start-Ups       LPS       LPS       LPS  10^6 ltr     Kw-hr    Low   High
  ---------------------------------------------------------------------------------------------------------
  CC-Pump-1               61.70           5      0.00    138.25    200.00     2.400      3.72    0.0    7.2
  CC-Pump-2               75.81           5      0.00    132.54    200.00     2.833      3.95    0.0   10.5
  JK-Pump-1               87.23           6      0.00    171.30    300.00     3.505     38.38    0.0    0.0
  JK-Pump-2               82.98           6      0.00    164.93    300.00     2.950     37.21    0.0    0.0
  XR-Pump-1               80.84           8      0.00     64.88     95.00     1.511     13.25    0.0    0.0
  XR-Pump-2               87.22           8      0.00     65.16     95.00     1.625     14.89    0.0    0.0
  XR-Pump-3               85.09           8      0.00     73.01     95.00     1.710     13.38    0.0    0.0
  XR-Pump-4               85.08           8      0.00     73.35     95.00     1.738     14.32    0.0    0.0
  

  Analysis begun on:  Wed Dec 15 16:42:18 2021
  Analysis ended on:  Wed Dec 15 16:42:23 2021
  Total elapsed time: 00:00:05