
  EPA STORM WATER MANAGEMENT MODEL - VERSION 5.1 (Build 5.3.0.dev0)
  --------------------------------------------------------------

  WARNING 04: minimum elevation drop used for Conduit WS02004404WS02004405
  WARNING 03: negative offset ignored for Link YS02001904YS02001907
  
  *********************************************************
  NOTE: The summary statistics displayed in this report are
  based on results found at every computational time step,  
  not just on results from each reporting time step.
  *********************************************************
  
  ****************
  Analysis Options
  ****************
  Flow Units ............... LPS
  Process Models:
    Rainfall/Runoff ........ YES
    RDII ................... NO
    Snowmelt ............... NO
    Groundwater ............ NO
    Flow Routing ........... YES
    Ponding Allowed ........ NO
    Water Quality .......... NO
  Infiltration Method ...... HORTON
  Flow Routing Method ...... DYNWAVE
  Surcharge Method ......... EXTRAN
  Starting Date ............ 08/28/2015 08:00:00
  Ending Date .............. 08/28/2015 15:50:00
  Antecedent Dry Days ...... 8.0
  Report Time Step ......... 00:01:00
  Wet Time Step ............ 00:01:00
  Dry Time Step ............ 00:01:00
  Routing Time Step ........ 5.00 sec
  Variable Time Step ....... YES
  Maximum Trials ........... 8
  Number of Threads ........ 4
  Head Tolerance ........... 0.001500 m
  
  
  **************************        Volume         Depth
  Runoff Quantity Continuity     hectare-m            mm
  **************************     ---------       -------
  Total Precipitation ......         6.144        13.452
  Evaporation Loss .........         0.000         0.000
  Infiltration Loss ........         1.572         3.442
  Surface Runoff ...........         3.480         7.619
  Final Storage ............         1.093         2.393
  Continuity Error (%) .....        -0.016
  
  
  **************************        Volume        Volume
  Flow Routing Continuity        hectare-m      10^6 ltr
  **************************     ---------     ---------
  Dry Weather Inflow .......         0.616         6.165
  Wet Weather Inflow .......         3.479        34.790
  Groundwater Inflow .......         0.000         0.000
  RDII Inflow ..............         0.000         0.000
  External Inflow ..........         0.102         1.024
  External Outflow .........         1.971        19.709
  Flooding Loss ............         1.769        17.690
  Evaporation Loss .........         0.000         0.000
  Exfiltration Loss ........         0.000         0.000
  Initial Stored Volume ....         0.076         0.761
  Final Stored Volume ......         0.629         6.291
  Continuity Error (%) .....        -2.225
  
  
  *************************
  Highest Continuity Errors
  *************************
  Node HS02004842 (15.27%)
  Node YS02001884 (11.58%)
  Node JK-storage (-9.36%)
  Node YSB1171 (2.79%)
  Node HS02004817 (2.78%)
  
  
  ***************************
  Time-Step Critical Elements
  ***************************
  Link 3 (50.11%)
  Link WS02006252WS02006251 (41.40%)
  Link WS02006238WS02006235 (2.47%)
  Link WS02006280WS02006229 (1.43%)
  
  
  ********************************
  Highest Flow Instability Indexes
  ********************************
  Link YS02001619YS02001622 (38)
  Link YS02163601YS02164001 (38)
  Link YS02001629YS02163301 (38)
  Link YS02163301YS02001633 (38)
  Link YS02164001YS02001641 (35)
  
  
  *************************
  Routing Time Step Summary
  *************************
  Minimum Time Step           :     0.19 sec
  Average Time Step           :     0.80 sec
  Maximum Time Step           :     5.00 sec
  Percent in Steady State     :    -0.00
  Average Iterations per Step :     4.57
  Percent Not Converging      :    21.23
  
  
  ***************************
  Subcatchment Runoff Summary
  ***************************
  
  ------------------------------------------------------------------------------------------------------------------------------
                            Total      Total      Total      Total     Imperv       Perv      Total       Total     Peak  Runoff
                           Precip      Runon       Evap      Infil     Runoff     Runoff     Runoff      Runoff   Runoff   Coeff
  Subcatchment                 mm         mm         mm         mm         mm         mm         mm    10^6 ltr      LPS
  ------------------------------------------------------------------------------------------------------------------------------
  sub0                      13.45       0.00       0.00       0.89      11.25       0.05      11.30        0.01     3.67   0.840
  sub1                      13.45       0.00       0.00       1.45      10.71       0.03      10.74        0.07    24.31   0.799
  sub2                      13.45       0.00       0.00       4.95       7.56       0.02       7.58        0.07    22.93   0.564
  sub3                      13.45       0.00       0.00       4.96       7.52       0.02       7.54        0.17    51.30   0.560
  sub4                      13.45       0.00       0.00       1.46      10.54       0.02      10.56        0.22    61.94   0.785
  sub5                      13.45       0.00       0.00       0.91      11.19       0.03      11.22        0.13    43.21   0.834
  sub7                      13.45       0.00       0.00       1.17      10.98       0.04      11.03        0.04    13.69   0.820
  sub8                      13.45       0.00       0.00       1.17      10.97       0.04      11.01        0.07    25.15   0.819
  sub9                      13.45       0.00       0.00       1.17      10.97       0.04      11.01        0.05    18.81   0.818
  sub10                     13.45       0.00       0.00       1.04      11.08       0.03      11.11        0.12    42.29   0.826
  sub11                     13.45       0.00       0.00       1.04      11.10       0.04      11.14        0.13    46.68   0.828
  sub12                     13.45       0.00       0.00       1.69      10.51       0.06      10.58        0.09    35.94   0.786
  sub14                     13.45       0.00       0.00       1.17      10.97       0.04      11.01        0.10    37.02   0.818
  sub15                     13.45       0.00       0.00       4.00       8.43       0.04       8.47        0.15    51.03   0.630
  sub16                     13.45       0.00       0.00       4.38       8.09       0.06       8.15        0.09    32.58   0.606
  sub17                     13.45       0.00       0.00       4.25       8.21       0.06       8.27        0.07    26.73   0.615
  sub22                     13.45       0.00       0.00       5.74       6.88       0.04       6.92        0.44   159.06   0.514
  sub23                     13.45       0.00       0.00       4.93       7.60       0.05       7.65        0.36   133.95   0.569
  sub60                     13.45       0.00       0.00       1.61       8.73       0.00       8.74        2.65   387.96   0.649
  sub61                     13.45       0.00       0.00       2.28       8.88       0.00       8.88        2.74   483.52   0.660
  sub62                     13.45       0.00       0.00       1.07       9.65       0.00       9.66        2.97   496.42   0.718
  sub63                     13.45       0.00       0.00       3.90       7.77       0.00       7.77        2.35   446.68   0.578
  sub64                     13.45       0.00       0.00       2.01       8.38       0.00       8.38        2.55   368.35   0.623
  sub65                     13.45       0.00       0.00       1.75       8.52       0.00       8.52        2.62   373.60   0.634
  sub66                     13.45       0.00       0.00       3.90       7.19       0.00       7.19        2.21   337.96   0.535
  sub67                     13.45       0.00       0.00       1.07      10.19       0.01      10.19        3.15   622.58   0.758
  sub68                     13.45       0.00       0.00       1.88       9.34       0.01       9.34        2.87   531.38   0.694
  sub69                     13.45       0.00       0.00       2.01       9.68       0.01       9.69        2.26   503.32   0.720
  sub70                     13.45       9.89       0.00       7.67      12.93       0.26      13.20        3.02   423.72   0.565
  sub71                     13.45       0.00       0.00       1.07       9.40       0.00       9.40        2.22   347.35   0.699
  sub72                     13.45       0.00       0.00       0.94       7.49       0.00       7.50        1.53   163.23   0.557
  sub73                     13.45      12.84       0.00       8.67      14.26       0.27      14.53        3.41   375.92   0.552
  sub74                     13.45       0.00       0.00      10.09       2.88       0.00       2.89        1.15   273.25   0.215
  
  
  ******************
  Node Depth Summary
  ******************
  
  ---------------------------------------------------------------------------------
                                 Average  Maximum  Maximum  Time of Max    Reported
                                   Depth    Depth      HGL   Occurrence   Max Depth
  Node                 Type       Meters   Meters   Meters  days hr:min      Meters
  ---------------------------------------------------------------------------------
  WS02001211           JUNCTION     0.64     0.78     5.62     0  02:43        0.78
  WS02001212           JUNCTION     0.38     0.50     5.57     0  02:43        0.50
  WS02001213           JUNCTION     0.61     0.76     5.53     0  02:43        0.76
  WS02003069           JUNCTION     0.45     0.61     5.19     0  02:45        0.61
  WS02003072           JUNCTION     0.51     0.66     5.03     0  02:46        0.66
  WS02003073           JUNCTION     0.31     0.41     4.47     0  02:46        0.41
  WS02003060           JUNCTION     0.40     0.54     5.47     0  02:44        0.54
  WS02003066           JUNCTION     0.24     0.35     5.91     0  03:05        0.35
  WS02003059           JUNCTION     0.67     0.82     5.51     0  02:44        0.82
  WS02003067           JUNCTION     0.60     0.78     6.10     0  03:05        0.78
  WS02004401           JUNCTION     0.72     1.10     7.10     0  03:03        1.10
  WS02004402           JUNCTION     0.74     1.10     7.06     0  03:03        1.10
  WS02004403           JUNCTION     0.76     1.09     7.02     0  03:03        1.09
  WS02004404           JUNCTION     0.84     1.15     7.00     0  03:03        1.15
  WS02004406           JUNCTION     0.84     1.10     6.93     0  03:03        1.10
  WS02004409           JUNCTION     0.53     0.84     6.61     0  03:04        0.84
  WS02004410           JUNCTION     0.55     0.84     6.56     0  03:04        0.84
  WS02004411           JUNCTION     0.56     0.84     6.52     0  03:04        0.84
  WS02004412           JUNCTION     0.57     0.83     6.47     0  03:04        0.83
  WS02004413           JUNCTION     0.73     0.97     6.44     0  03:05        0.97
  WS02004405           JUNCTION     0.83     1.13     6.98     0  03:03        1.13
  WS02006109           JUNCTION     0.80     1.25     7.87     0  03:02        1.24
  WS02006110           JUNCTION     0.78     1.10     7.69     0  03:02        1.10
  WS02006111           JUNCTION     0.24     0.59     7.29     0  03:03        0.59
  WS02006112           JUNCTION     0.89     1.37     7.26     0  03:03        1.37
  WS02006113           JUNCTION     0.36     0.60     7.49     0  03:03        0.60
  WS02006115           JUNCTION     0.61     1.05     7.19     0  03:03        1.05
  WS02006116           JUNCTION     0.69     1.11     7.15     0  03:03        1.11
  WS02006230           JUNCTION     0.79     1.37     8.11     0  03:02        1.36
  WS02006231           JUNCTION     0.54     1.00     8.13     0  03:02        0.98
  WS02006232           JUNCTION     0.67     1.10     8.14     0  03:02        1.08
  WS02006234           JUNCTION     0.59     0.99     8.14     0  03:02        0.98
  WS02006235           JUNCTION     0.62     0.99     8.16     0  03:02        0.98
  WS02006238           JUNCTION     0.65     1.02     8.16     0  03:02        1.00
  WS02006240           JUNCTION     0.55     0.90     8.19     0  03:01        0.89
  WS02006242           JUNCTION     0.60     0.95     8.21     0  03:02        0.94
  WS02006243           JUNCTION     0.48     0.81     8.23     0  03:02        0.81
  WS02006245           JUNCTION     0.46     0.76     8.25     0  03:01        0.76
  WS02006247           JUNCTION     0.47     0.76     8.26     0  03:01        0.76
  WS02006248           JUNCTION     0.42     0.69     8.28     0  03:00        0.69
  WS02006249           JUNCTION     0.44     0.69     8.29     0  03:00        0.69
  WS02006239           JUNCTION     0.60     0.97     8.17     0  03:02        0.95
  WS02006251           JUNCTION     0.44     0.77     8.44     0  03:00        0.77
  WS02006252           JUNCTION     0.38     0.59     8.83     0  06:23        0.59
  WS02006253           JUNCTION     0.46     0.81     8.45     0  03:00        0.80
  WS02006256           JUNCTION     1.07     1.22     8.15     0  02:50        1.22
  WS02004138           JUNCTION     0.14     0.19     7.44     0  07:00        0.19
  WS02004407           JUNCTION     0.24     0.36     6.68     0  03:03        0.36
  WS02006228           JUNCTION     0.81     1.36     8.02     0  03:02        1.36
  WS02006229           JUNCTION     0.80     1.40     8.10     0  03:02        1.40
  WS02006280           JUNCTION     0.08     0.24     8.52     0  03:02        0.24
  WS02006284           JUNCTION     0.38     0.63     9.02     0  03:02        0.62
  WS02006287           JUNCTION     0.11     0.37     9.32     0  03:02        0.37
  WSF200               JUNCTION     0.24     0.38     5.62     0  03:05        0.38
  HS02004901           JUNCTION     0.14     0.35    10.17     0  03:01        0.35
  HS02004881           JUNCTION     0.01     0.05     9.08     0  03:01        0.05
  HS02004876           JUNCTION     0.05     0.15     9.18     0  03:01        0.15
  HS02004870           JUNCTION     0.02     0.09     9.37     0  03:01        0.09
  HS02004862           JUNCTION     0.02     0.10     9.49     0  03:01        0.10
  HS02004856           JUNCTION     0.08     0.15     9.57     0  03:01        0.15
  HS02004852           JUNCTION     0.01     0.07     9.58     0  03:02        0.07
  HS02004848           JUNCTION     0.01     0.06     9.67     0  03:01        0.06
  HS02004842           JUNCTION     0.33     0.40     9.67     0  03:01        0.40
  HS02004837           JUNCTION     0.03     0.09     9.67     0  03:01        0.09
  HS02004830           JUNCTION     0.04     0.10     9.57     0  03:01        0.10
  HS02004824           JUNCTION     0.03     0.11     9.51     0  03:02        0.11
  HS02004817           JUNCTION     0.45     0.67     9.52     0  03:02        0.67
  HS02004807           JUNCTION     0.14     0.34     9.51     0  03:02        0.34
  HS02004802           JUNCTION     0.17     0.38     9.50     0  03:02        0.38
  HS02004799           JUNCTION     0.13     0.43     9.65     0  03:01        0.43
  HS02004792           JUNCTION     0.04     0.20     9.72     0  03:01        0.19
  HS02004788           JUNCTION     0.03     0.14    10.04     0  03:02        0.14
  HS02004785           JUNCTION     0.06     0.23    10.13     0  03:02        0.23
  HS02004777           JUNCTION     0.16     0.37    10.17     0  03:01        0.37
  HS02004770           JUNCTION     0.13     0.34    10.17     0  03:01        0.34
  HS02004480           JUNCTION     0.09     0.35     9.59     0  03:01        0.35
  HS02004479           JUNCTION     0.13     0.39     9.60     0  03:01        0.39
  HS02004478           JUNCTION     0.07     0.26     9.48     0  03:01        0.26
  YS02001745           JUNCTION     0.68     0.89     8.41     0  03:26        0.88
  YS02001748           JUNCTION     1.06     2.27     9.35     0  02:46        1.33
  YS02001751           JUNCTION     1.24     2.20     9.08     0  02:45        1.53
  YS02001754           JUNCTION     1.49     2.20     8.81     0  02:45        1.81
  YS02001762           JUNCTION     1.69     2.11     8.51     0  02:48        2.02
  YS02001765           JUNCTION     1.64     2.03     8.48     0  02:48        1.96
  YS02001767           JUNCTION     1.61     1.99     8.48     0  02:48        1.92
  YS02001770           JUNCTION     1.60     1.95     8.44     0  02:45        1.90
  YS02001774           JUNCTION     1.67     2.02     8.44     0  02:45        1.97
  YS02001779           JUNCTION     1.42     1.68     8.37     0  02:45        1.68
  YS02001882           JUNCTION     0.58     1.64     8.36     0  02:50        1.63
  YS02001884           JUNCTION     0.67     1.74     8.35     0  03:00        1.72
  YS02001759           JUNCTION     1.72     2.13     8.50     0  02:48        2.06
  YS02001887           JUNCTION     0.75     1.81     8.35     0  03:00        1.80
  YS02001890           JUNCTION     0.78     1.81     8.32     0  02:50        1.81
  YS02001898           JUNCTION     0.54     1.57     8.31     0  02:51        1.56
  YS02001901           JUNCTION     0.66     1.68     8.29     0  02:50        1.67
  YS02001904           JUNCTION     0.64     1.64     8.27     0  02:50        1.63
  YS02001907           JUNCTION     0.97     1.96     8.25     0  02:50        1.96
  YS02001910           JUNCTION     0.76     1.80     8.31     0  02:50        1.77
  YS02001915           JUNCTION     0.56     1.62     8.34     0  02:50        1.59
  YS02001918           JUNCTION     0.30     1.40     8.47     0  02:50        1.28
  YS02001619           JUNCTION     1.21     1.61     8.54     0  02:44        1.48
  YS02001629           JUNCTION     1.56     1.85     8.40     0  02:44        1.84
  YS02001641           JUNCTION     1.66     1.95     8.38     0  02:47        1.93
  YS02001644           JUNCTION     1.66     1.92     8.35     0  02:46        1.92
  YS02001652           JUNCTION     1.51     2.16     8.76     0  02:54        2.01
  YS02001655           JUNCTION     1.27     2.20     9.05     0  02:43        1.87
  YS02001920           JUNCTION     0.40     1.38     8.39     0  02:52        1.36
  YS02001923           JUNCTION     0.24     1.14     8.40     0  02:52        1.13
  YS02001926           JUNCTION     0.29     0.98     8.43     0  02:51        0.98
  YS02001929           JUNCTION     0.17     0.76     8.45     0  02:52        0.71
  YS02001658           JUNCTION     1.00     2.30     9.44     0  02:45        1.58
  YS02001661           JUNCTION     0.79     2.46     9.86     0  02:54        1.40
  YS02001664           JUNCTION     0.35     0.57     8.50     0  03:48        0.56
  YS02001622           JUNCTION     1.23     1.62     8.52     0  02:44        1.49
  YS02001633           JUNCTION     1.65     1.97     8.42     0  02:47        1.94
  YS02001649           JUNCTION     1.70     2.05     8.44     0  02:48        2.05
  YS02001757           JUNCTION     1.82     2.21     8.47     0  02:46        2.16
  YS02001895           JUNCTION     0.54     1.57     8.31     0  03:02        1.56
  YS02001625           JUNCTION     1.51     1.78     8.38     0  02:43        1.78
  YS02163301           JUNCTION     1.59     1.90     8.42     0  02:47        1.88
  YS02163601           JUNCTION     1.70     2.02     8.42     0  02:47        1.98
  YS02164001           JUNCTION     1.64     1.95     8.40     0  02:47        1.91
  YS02001647           JUNCTION     1.49     1.81     8.42     0  02:48        1.79
  YSB1154              JUNCTION     0.27     0.54     9.60     0  03:01        0.54
  YSB6556              JUNCTION     0.16     0.43     9.60     0  03:02        0.43
  YSB1174              JUNCTION     0.22     0.49     9.60     0  03:01        0.49
  YSB1171              JUNCTION     0.42     0.69     9.60     0  03:01        0.69
  YS02006553           JUNCTION     0.97     1.97     8.25     0  03:00        1.96
  YS02006561           JUNCTION     0.34     1.12     7.78     0  02:50        1.10
  YS02006556           JUNCTION     0.94     1.93     8.24     0  03:00        1.92
  YS02006558           JUNCTION     0.98     1.98     8.24     0  02:59        1.97
  YS02001783           JUNCTION     0.57     2.30     8.44     0  02:36        1.50
  YS02001784           JUNCTION     0.59     2.20     8.27     0  02:36        1.44
  YS02001786           JUNCTION     0.53     2.23     8.26     0  02:36        1.28
  YS02001788           JUNCTION     0.46     2.05     8.03     0  02:36        1.15
  YS02001790           JUNCTION     0.58     1.96     7.60     0  02:35        1.30
  YS02001791           JUNCTION     0.55     1.71     7.18     0  02:35        1.28
  YS02001793           JUNCTION     0.76     3.12     7.95     0  02:32        1.80
  WS02004139           JUNCTION     0.58     0.72     5.63     0  02:42        0.72
  WSC                  OUTFALL      0.31     0.41     1.08     0  02:46        0.41
  3                    OUTFALL      0.11     0.21     6.21     0  02:50        0.21
  4                    OUTFALL      0.04     0.19     7.19     0  03:00        0.19
  5                    OUTFALL      0.00     0.00     5.00     0  00:00        0.00
  JK-storage           STORAGE      2.82     5.80     6.60     0  02:36        5.80
  CC-storage           STORAGE      1.04     1.39     8.39     0  03:52        1.39
  XR-storage           STORAGE      7.49     7.72     5.72     0  02:23        7.72
  
  
  *******************
  Node Inflow Summary
  *******************
  
  -------------------------------------------------------------------------------------------------
                                  Maximum  Maximum                  Lateral       Total        Flow
                                  Lateral    Total  Time of Max      Inflow      Inflow     Balance
                                   Inflow   Inflow   Occurrence      Volume      Volume       Error
  Node                 Type           LPS      LPS  days hr:min    10^6 ltr    10^6 ltr     Percent
  -------------------------------------------------------------------------------------------------
  WS02001211           JUNCTION      7.35   381.62     0  07:00       0.207        6.05       0.524
  WS02001212           JUNCTION      0.00   377.85     0  07:01           0        6.02       0.307
  WS02001213           JUNCTION      0.00   377.04     0  07:01           0           6       0.346
  WS02003069           JUNCTION      0.32  1009.69     0  02:45     0.00902        14.8       0.209
  WS02003072           JUNCTION      0.00  1009.78     0  02:46           0        14.8       0.255
  WS02003073           JUNCTION      1.82  1011.64     0  02:46      0.0514        14.8       0.289
  WS02003060           JUNCTION     16.53  1009.40     0  02:44       0.466        14.8       0.199
  WS02003066           JUNCTION      0.00   793.34     0  03:05           0        8.42       0.061
  WS02003059           JUNCTION      0.00   377.20     0  07:01           0        5.98       0.625
  WS02003067           JUNCTION      0.00   792.86     0  03:05           0        8.43       0.124
  WS02004401           JUNCTION      0.00   796.31     0  03:03           0        8.69       0.280
  WS02004402           JUNCTION      0.00   796.37     0  03:03           0        8.67       0.261
  WS02004403           JUNCTION      0.00   796.42     0  03:03           0        8.65       0.234
  WS02004404           JUNCTION      0.16   796.61     0  03:03     0.00457        8.63       0.174
  WS02004406           JUNCTION      0.00   796.67     0  03:03           0         8.6       0.422
  WS02004409           JUNCTION      0.00   796.48     0  03:03           0        8.55       0.233
  WS02004410           JUNCTION      0.00   794.93     0  03:04           0        8.53       0.258
  WS02004411           JUNCTION      0.00   793.74     0  03:04           0        8.51       0.261
  WS02004412           JUNCTION      0.00   793.00     0  03:04           0        8.49       0.276
  WS02004413           JUNCTION      0.00   792.77     0  03:04           0        8.46       0.398
  WS02004405           JUNCTION      0.04   796.66     0  03:03     0.00107        8.62       0.258
  WS02006109           JUNCTION      1.23   781.19     0  03:02      0.0347        8.76       0.246
  WS02006110           JUNCTION      0.00   781.18     0  03:02           0        8.74       0.251
  WS02006111           JUNCTION      0.00   778.34     0  03:02           0        8.71       0.063
  WS02006112           JUNCTION     26.73   795.94     0  03:03      0.0709        8.77       0.366
  WS02006113           JUNCTION      0.00   781.19     0  03:02           0        8.72       0.134
  WS02006115           JUNCTION      0.00   795.89     0  03:03           0        8.74       0.274
  WS02006116           JUNCTION      0.00   796.14     0  03:03           0        8.72       0.257
  WS02006230           JUNCTION     10.28   398.34     0  06:28        0.29        6.67       0.218
  WS02006231           JUNCTION      0.00   388.15     0  06:26           0         6.4       0.256
  WS02006232           JUNCTION      0.00   388.16     0  06:26           0        6.42       0.276
  WS02006234           JUNCTION      0.00   389.58     0  05:22           0        6.43       0.165
  WS02006235           JUNCTION      0.00   389.44     0  05:22           0         6.5       0.190
  WS02006238           JUNCTION      0.00   313.26     0  03:31           0        4.59       0.198
  WS02006240           JUNCTION      0.00   332.04     0  03:31           0        4.59       0.350
  WS02006242           JUNCTION      0.00   339.38     0  03:31           0        4.59       0.408
  WS02006243           JUNCTION      0.00   344.45     0  03:31           0        4.59       0.031
  WS02006245           JUNCTION      0.00   346.73     0  03:31           0         4.6       0.312
  WS02006247           JUNCTION      0.00   351.74     0  02:09           0        4.61       0.232
  WS02006248           JUNCTION      0.00   357.62     0  02:09           0        4.62       0.143
  WS02006249           JUNCTION      0.00   521.21     0  03:00           0        5.45       0.301
  WS02006239           JUNCTION      0.00   320.96     0  03:31           0        4.59       0.295
  WS02006251           JUNCTION      0.08   522.49     0  03:00     0.00217        5.49       0.260
  WS02006252           JUNCTION      0.00   400.00     0  06:10           0        5.06       0.010
  WS02006253           JUNCTION      3.67   134.78     0  03:01     0.00915       0.433       1.996
  WS02006256           JUNCTION      0.00   599.96     0  02:50           0        6.09       0.053
  WS02004138           JUNCTION      0.00   379.99     0  07:00           0        5.87       0.065
  WS02004407           JUNCTION      0.00   796.68     0  03:03           0        8.56       0.104
  WS02006228           JUNCTION      0.00   780.07     0  03:02           0        8.74       0.183
  WS02006229           JUNCTION      0.00   780.18     0  03:02           0        8.76       0.147
  WS02006280           JUNCTION      0.00   611.97     0  03:02           0         2.1       0.003
  WS02006284           JUNCTION      0.10   611.08     0  03:02      0.0027         2.1       0.059
  WS02006287           JUNCTION      0.00   609.85     0  03:02           0         2.1       0.034
  WSF200               JUNCTION      0.00   793.50     0  03:05           0        8.41       0.066
  HS02004901           JUNCTION     32.58    32.58     0  03:01      0.0854      0.0856       2.108
  HS02004881           JUNCTION     13.69   131.68     0  03:01      0.0372       0.403       0.048
  HS02004876           JUNCTION     24.31   119.37     0  03:01      0.0714       0.367       0.153
  HS02004870           JUNCTION     25.15    96.63     0  03:01      0.0704       0.295       0.038
  HS02004862           JUNCTION     23.13    73.48     0  03:01      0.0763       0.225       0.080
  HS02004856           JUNCTION     18.81    51.88     0  03:01      0.0529        0.15       0.973
  HS02004852           JUNCTION      0.00    35.11     0  03:01           0      0.0975       0.061
  HS02004848           JUNCTION     51.30    51.30     0  03:01        0.17        0.17       0.030
  HS02004842           JUNCTION      0.00    15.11     0  03:01           0      0.0852      18.024
  HS02004837           JUNCTION     48.64    62.30     0  03:01       0.302       0.374       0.218
  HS02004830           JUNCTION      0.15    61.39     0  03:01     0.00423       0.364       0.341
  HS02004824           JUNCTION     61.99   121.76     0  03:01       0.222       0.584       0.093
  HS02004817           JUNCTION      0.60   117.99     0  03:02      0.0169       0.601       2.855
  HS02004807           JUNCTION     46.68   158.06     0  03:01       0.129       0.713       0.602
  HS02004802           JUNCTION      0.00   156.92     0  03:03           0       0.709       0.573
  HS02004799           JUNCTION     37.02   389.11     0  03:01       0.105        1.19       0.207
  HS02004792           JUNCTION    159.34   356.43     0  03:01       0.445        1.08       0.039
  HS02004788           JUNCTION     52.70   202.58     0  03:02       0.193       0.638       0.062
  HS02004785           JUNCTION      0.15   157.28     0  03:01     0.00423       0.447       0.112
  HS02004777           JUNCTION      0.03   160.02     0  03:01    0.000846       0.447       1.175
  HS02004770           JUNCTION    133.95   163.77     0  03:01       0.365       0.449       0.699
  HS02004480           JUNCTION      0.00   456.70     0  03:01           0         1.4       0.083
  HS02004479           JUNCTION      0.00    72.19     0  03:02           0       0.228       0.322
  HS02004478           JUNCTION      0.00   609.32     0  03:02           0         2.1       0.019
  YS02001745           JUNCTION    387.96   450.88     0  02:46        2.65        2.66       0.364
  YS02001748           JUNCTION      0.04   659.02     0  02:46     0.00127        2.65       0.866
  YS02001751           JUNCTION      0.01   398.71     0  03:01     0.00031        2.62       0.895
  YS02001754           JUNCTION      0.26   398.95     0  03:01     0.00733         2.6       0.960
  YS02001762           JUNCTION      0.00   389.09     0  02:55           0        1.76       1.210
  YS02001765           JUNCTION      0.00   389.22     0  02:55           0        1.76       1.397
  YS02001767           JUNCTION      0.54   389.02     0  02:55      0.0151        1.78       2.056
  YS02001770           JUNCTION    496.57   496.57     0  03:01        2.97        3.13       1.016
  YS02001774           JUNCTION      0.00   400.04     0  03:28           0         1.5       1.693
  YS02001779           JUNCTION      0.01   401.53     0  03:28    0.000141        1.47       1.056
  YS02001882           JUNCTION      0.00    31.26     0  02:38           0      0.0192      13.893
  YS02001884           JUNCTION      0.00    51.07     0  02:38           0      0.0549      13.093
  YS02001759           JUNCTION    483.56   784.28     0  02:56        2.74        4.31       0.536
  YS02001887           JUNCTION    623.03   623.17     0  03:01        3.16        3.19       0.276
  YS02001890           JUNCTION      0.00   623.16     0  03:01           0        3.14       0.302
  YS02001898           JUNCTION      0.00   517.14     0  03:04           0        3.09       0.117
  YS02001901           JUNCTION      0.00   517.19     0  03:04           0        3.09       0.228
  YS02001904           JUNCTION      0.00   517.20     0  03:04           0        3.08       0.210
  YS02001907           JUNCTION      0.00  1058.08     0  03:01           0        6.88       0.360
  YS02001910           JUNCTION      0.00   541.78     0  03:01           0        3.81       0.320
  YS02001915           JUNCTION    347.37   541.74     0  03:01        2.22        3.85       0.166
  YS02001918           JUNCTION      0.00   274.87     0  02:52           0        1.65       0.117
  YS02001619           JUNCTION    337.96   337.96     0  03:01        2.21        2.21       0.550
  YS02001629           JUNCTION      0.00   227.51     0  02:50           0        1.58       1.854
  YS02001641           JUNCTION      0.00   480.51     0  02:50           0         4.1       0.516
  YS02001644           JUNCTION    368.39  1138.90     0  03:28        2.55        9.06       0.289
  YS02001652           JUNCTION      0.00   485.82     0  03:01           0        2.31       1.013
  YS02001655           JUNCTION      0.15   486.19     0  03:01     0.00434        2.33       1.093
  YS02001920           JUNCTION      2.87   274.78     0  02:52      0.0809        1.64       0.188
  YS02001923           JUNCTION      0.04   270.82     0  02:53     0.00106        1.54       0.052
  YS02001926           JUNCTION      0.05   194.94     0  02:53     0.00147        1.53       0.222
  YS02001929           JUNCTION    163.23   163.23     0  03:01        1.53        1.53       0.039
  YS02001658           JUNCTION      0.00   659.29     0  02:45           0        2.36       0.983
  YS02001661           JUNCTION      0.00   742.02     0  02:55           0        3.03      -0.208
  YS02001664           JUNCTION    446.68   446.68     0  03:01        2.35        3.03       0.180
  YS02001622           JUNCTION      0.00   337.80     0  03:01           0        2.19       1.464
  YS02001633           JUNCTION    373.80   480.63     0  02:51        2.63        4.15       0.778
  YS02001649           JUNCTION      0.00  1018.40     0  02:51           0        5.63       0.664
  YS02001757           JUNCTION      0.00  1985.98     0  02:52           0        9.82       0.948
  YS02001895           JUNCTION      0.00   517.31     0  03:04           0        3.09       0.164
  YS02001625           JUNCTION      0.00   338.14     0  03:01           0        2.16       1.808
  YS02163301           JUNCTION      0.00   228.30     0  02:50           0        1.55       1.555
  YS02163601           JUNCTION      0.11   480.72     0  02:51      0.0031        4.12       0.735
  YS02164001           JUNCTION      0.00   480.72     0  02:51           0         4.1       0.490
  YS02001647           JUNCTION      0.00   731.95     0  02:51           0        4.49       0.633
  YSB1154              JUNCTION     43.21    43.21     0  03:01       0.127       0.128       1.144
  YSB6556              JUNCTION      0.00    41.77     0  03:01           0       0.129       0.980
  YSB1174              JUNCTION     35.94    35.94     0  03:01      0.0924      0.0931       1.403
  YSB1171              JUNCTION      0.00    73.32     0  03:01           0       0.227       2.865
  YS02006553           JUNCTION      0.00   672.57     0  03:32           0        6.12       0.256
  YS02006561           JUNCTION      0.00   969.09     0  03:00           0        8.97       0.008
  YS02006556           JUNCTION      0.00   672.55     0  03:32           0        6.12       0.186
  YS02006558           JUNCTION    532.26   969.48     0  03:00         2.9           9       0.061
  YS02001783           JUNCTION      0.00   969.08     0  03:00           0        8.97       0.029
  YS02001784           JUNCTION      1.06   970.13     0  03:01      0.0299        8.99       0.044
  YS02001786           JUNCTION      0.06   970.13     0  03:01     0.00159        8.99       0.039
  YS02001788           JUNCTION      0.07   970.25     0  03:01       0.002        8.99       0.024
  YS02001790           JUNCTION      0.15   970.35     0  03:01     0.00437        8.99       0.029
  YS02001791           JUNCTION      0.00   970.39     0  03:01           0        8.99       0.014
  YS02001793           JUNCTION      0.00   970.56     0  03:01           0        9.04       0.013
  WS02004139           JUNCTION      0.32   379.54     0  07:00     0.00905        5.88       0.558
  WSC                  OUTFALL       0.00  1011.94     0  02:46           0        14.7       0.000
  3                    OUTFALL       0.00   540.05     0  02:50           0        4.15       0.000
  4                    OUTFALL       0.00   302.15     0  03:00           0       0.819       0.000
  5                    OUTFALL       0.00     0.00     0  00:00           0           0       0.000 ltr
  JK-storage           STORAGE       0.00  1049.21     0  02:31           0        9.19      -8.556
  CC-storage           STORAGE       0.00  1986.11     0  02:52           0        8.41       0.042
  XR-storage           STORAGE     849.17   849.17     0  03:01        10.2        10.8      -0.001
  
  
  **********************
  Node Surcharge Summary
  **********************
  
  Surcharging occurs when water rises above the top of the highest conduit.
  ---------------------------------------------------------------------
                                               Max. Height   Min. Depth
                                   Hours       Above Crown    Below Rim
  Node                 Type      Surcharged         Meters       Meters
  ---------------------------------------------------------------------
  WS02004401           JUNCTION        0.30          0.100        1.560
  WS02004402           JUNCTION        0.34          0.103        1.637
  WS02004403           JUNCTION        0.36          0.094        1.936
  WS02004404           JUNCTION        0.77          0.147        2.633
  WS02004406           JUNCTION        0.62          0.098        2.352
  WS02004405           JUNCTION        0.71          0.128        2.672
  WS02006109           JUNCTION        2.76          0.429        1.391
  WS02006110           JUNCTION        1.12          0.191        1.659
  WS02006112           JUNCTION        1.16          0.375        1.305
  WS02006115           JUNCTION        0.10          0.040        2.210
  WS02006116           JUNCTION        0.14          0.048        2.242
  WS02006230           JUNCTION        0.73          0.289        1.281
  WS02006231           JUNCTION        0.82          0.294        1.236
  WS02006232           JUNCTION        2.87          0.400        1.080
  WS02006234           JUNCTION        1.04          0.265        0.975
  WS02006235           JUNCTION        2.26          0.282        1.008
  WS02006238           JUNCTION        2.55          0.297        1.133
  WS02006240           JUNCTION        0.93          0.185        1.205
  WS02006242           JUNCTION        2.11          0.216        0.604
  WS02006243           JUNCTION        0.47          0.099        0.671
  WS02006245           JUNCTION        0.19          0.053        0.797
  WS02006247           JUNCTION        0.19          0.051        0.709
  WS02006239           JUNCTION        1.02          0.225        1.065
  WS02006252           JUNCTION        2.65          0.193        0.907
  WS02006228           JUNCTION        2.66          0.535        1.665
  YS02001748           JUNCTION        5.01          1.190        0.000
  YS02001751           JUNCTION        5.09          1.200        0.000
  YS02001754           JUNCTION        5.24          1.150        0.000
  YS02001762           JUNCTION        5.51          1.105        0.045
  YS02001765           JUNCTION        5.48          1.033        0.067
  YS02001767           JUNCTION        5.46          0.995        0.035
  YS02001770           JUNCTION        5.39          0.920        0.000
  YS02001774           JUNCTION        5.50          1.016        0.034
  YS02001779           JUNCTION        5.24          0.680        0.000
  YS02001882           JUNCTION        1.04          0.640        0.190
  YS02001884           JUNCTION        1.08          0.676        0.194
  YS02001759           JUNCTION        5.54          1.135        0.075
  YS02001887           JUNCTION        1.16          0.762        0.188
  YS02001890           JUNCTION        1.19          0.760        0.000
  YS02001898           JUNCTION        1.00          0.541        0.199
  YS02001901           JUNCTION        1.13          0.681        0.189
  YS02001904           JUNCTION        1.10          0.641        0.209
  YS02001907           JUNCTION        1.65          0.950        0.000
  YS02001910           JUNCTION        1.24          0.799        0.301
  YS02001915           JUNCTION        1.03          0.620        0.380
  YS02001918           JUNCTION        0.79          0.405        0.405
  YS02001619           JUNCTION        5.11          0.610        0.000
  YS02001629           JUNCTION        5.12          0.470        0.000
  YS02001641           JUNCTION        5.50          0.948        0.152
  YS02001644           JUNCTION        5.50          0.920        0.000
  YS02001652           JUNCTION        5.26          1.130        0.000
  YS02001655           JUNCTION        5.12          1.200        0.000
  YS02001920           JUNCTION        0.83          0.380        0.760
  YS02001658           JUNCTION        5.02          1.300        0.000
  YS02001661           JUNCTION        0.25          1.390        0.000
  YS02001622           JUNCTION        5.14          0.620        0.000
  YS02001633           JUNCTION        5.48          0.951        0.109
  YS02001649           JUNCTION        5.52          1.050        0.000
  YS02001757           JUNCTION        5.62          1.210        0.000
  YS02001895           JUNCTION        1.02          0.566        0.184
  YS02001625           JUNCTION        5.28          0.780        0.000
  YS02163301           JUNCTION        5.45          0.903        0.127
  YS02163601           JUNCTION        5.52          1.017        0.063
  YS02164001           JUNCTION        5.49          0.946        0.154
  YS02001647           JUNCTION        5.27          0.810        0.090
  YS02006553           JUNCTION        1.71          0.969        0.221
  YS02006561           JUNCTION        0.92          0.323        0.827
  YS02006556           JUNCTION        1.45          0.891        0.459
  YS02006558           JUNCTION        1.41          0.876        0.524
  YS02001783           JUNCTION        1.54          1.500        0.100
  YS02001784           JUNCTION        1.59          1.399        0.091
  YS02001786           JUNCTION        1.55          1.430        0.000
  YS02001788           JUNCTION        1.54          1.250        0.230
  YS02001790           JUNCTION        2.36          1.157        0.000
  YS02001791           JUNCTION        2.40          0.914        1.006
  YS02001793           JUNCTION        2.48          2.121        0.479
  
  
  *********************
  Node Flooding Summary
  *********************
  
  Flooding refers to all water that overflows a node, whether it ponds or not.
  --------------------------------------------------------------------------
                                                             Total   Maximum
                                 Maximum   Time of Max       Flood    Ponded
                        Hours       Rate    Occurrence      Volume     Depth
  Node                 Flooded       LPS   days hr:min    10^6 ltr    Meters
  --------------------------------------------------------------------------
  YS02001748              0.01    384.07      0  02:48       0.001     0.000
  YS02001751              0.01    115.49      0  02:45       0.000     0.000
  YS02001754              0.01      5.61      0  02:46       0.000     0.000
  YS02001770              0.01      8.44      0  02:45       0.000     0.000
  YS02001779              2.61    400.77      0  03:28       1.449     0.000
  YS02001890              0.23    107.20      0  03:01       0.038     0.000
  YS02001907              0.66    619.64      0  03:01       0.745     0.000
  YS02001619              0.01     34.64      0  02:45       0.000     0.000
  YS02001629              0.01     37.93      0  02:44       0.000     0.000
  YS02001644              4.02   1138.64      0  03:28       6.966     0.000
  YS02001652              0.01     16.65      0  03:06       0.000     0.000
  YS02001655              0.01    132.54      0  02:43       0.000     0.000
  YS02001658              0.01    210.20      0  02:45       0.000     0.000
  YS02001661              0.01    158.09      0  03:06       0.001     0.000
  YS02001622              0.01     29.90      0  02:44       0.000     0.000
  YS02001649              0.08     46.00      0  03:06       0.004     0.000
  YS02001757              0.01     23.16      0  02:48       0.000     0.000
  YS02001625              1.15    316.63      0  03:01       0.549     0.000
  YS02001786              0.01     76.78      0  02:36       0.000     0.000
  YS02001790              0.01    108.43      0  02:35       0.000     0.000
  JK-storage              2.23    966.23      0  03:10       3.928     0.000
  XR-storage              4.73    659.14      0  03:01       4.009     0.000
  
  
  **********************
  Storage Volume Summary
  **********************
  
  --------------------------------------------------------------------------------------------------
                         Average     Avg  Evap Exfil       Maximum     Max    Time of Max    Maximum
                          Volume    Pcnt  Pcnt  Pcnt        Volume    Pcnt     Occurrence    Outflow
  Storage Unit           1000 m3    Full  Loss  Loss       1000 m3    Full    days hr:min        LPS
  --------------------------------------------------------------------------------------------------
  JK-storage               0.142      49     0     0         0.291     100       0  02:36     661.86
  CC-storage               2.893      18     0     0         3.864      25       0  03:52     400.00
  XR-storage               0.899      97     0     0         0.926     100       0  02:23     379.99
  
  
  ***********************
  Outfall Loading Summary
  ***********************
  
  -----------------------------------------------------------
                         Flow       Avg       Max       Total
                         Freq      Flow      Flow      Volume
  Outfall Node           Pcnt       LPS       LPS    10^6 ltr
  -----------------------------------------------------------
  WSC                   99.99    606.91   1011.94      14.738
  3                     90.51    212.51    540.05       4.152
  4                     47.16     79.75    302.15       0.819
  5                      0.00      0.00      0.00       0.000
  -----------------------------------------------------------
  System                59.42    899.17   1629.77      19.709
  
  
  ********************
  Link Flow Summary
  ********************
  
  -----------------------------------------------------------------------------
                                 Maximum  Time of Max   Maximum    Max/    Max/
                                  |Flow|   Occurrence   |Veloc|    Full    Full
  Link                 Type          LPS  days hr:min     m/sec    Flow   Depth
  -----------------------------------------------------------------------------
  WS02003066WSF200     CONDUIT    793.50     0  03:05      2.98    0.13    0.29
  WS02006287WS02006284 CONDUIT    610.98     0  03:02      2.31    0.28    0.37
  WS02006284WS02006280 CONDUIT    611.97     0  03:02      2.55    0.26    0.35
  WS02006280WS02006229 CONDUIT    612.09     0  03:02      4.12    0.13    0.24
  WS02006229WS02006228 CONDUIT    780.07     0  03:02      1.55    2.58    1.00
  WS02006256WS02006235 CONDUIT    166.25     0  00:01      2.58    1.76    1.00
  WS02006253WS02006251 CONDUIT    140.77     0  03:01      0.45    0.42    1.00
  WS02006252WS02006251 CONDUIT    400.40     0  07:20      3.19    1.47    1.00
  WS02006251WS02006249 CONDUIT    521.21     0  03:00      1.36    1.50    0.99
  WS02006249WS02006248 CONDUIT    357.62     0  02:09      1.18    1.96    0.97
  WS02006248WS02006247 CONDUIT    351.74     0  02:09      1.15    0.77    0.99
  WS02006247WS02006245 CONDUIT    346.73     0  03:31      1.11    2.75    1.00
  WS02006245WS02006243 CONDUIT    344.45     0  03:31      1.13    1.02    1.00
  WS02006243WS02006242 CONDUIT    339.38     0  03:31      0.97    0.73    1.00
  WS02006242WS02006240 CONDUIT    332.04     0  03:31      0.92    1.32    1.00
  WS02006240WS02006239 CONDUIT    320.96     0  03:31      0.95    1.01    1.00
  WS02006239WS02006238 CONDUIT    313.26     0  03:31      0.88    1.00    1.00
  WS02006238WS02006235 CONDUIT    313.93     0  03:31      1.25    0.70    1.00
  WS02006235WS02006234 CONDUIT    389.58     0  05:22      1.02    4.11    1.00
  WS02006234WS02006232 CONDUIT    388.16     0  06:26      1.13    0.79    1.00
  WS02006232WS02006231 CONDUIT    388.15     0  06:26      1.06    0.81    1.00
  WS02006231WS02006230 CONDUIT    388.06     0  06:28      1.33    5.89    1.00
  WS02006230WS02006229 CONDUIT    398.39     0  06:27      1.04    8.87    1.00
  WS02006228WS02006109 CONDUIT    779.96     0  03:02      1.55    3.41    1.00
  WS02006116WS02004401 CONDUIT    796.31     0  03:03      1.01    1.10    1.00
  WS02006115WS02006116 CONDUIT    796.14     0  03:03      1.01    1.02    1.00
  WS02006113WS02006111 CONDUIT    778.34     0  03:02      2.60    0.93    0.74
  WS02006112WS02006115 CONDUIT    795.89     0  03:03      1.01    0.47    1.00
  WS02006111WS02006112 CONDUIT    778.14     0  03:03      1.72    0.37    0.86
  WS02006110WS02006113 CONDUIT    781.19     0  03:02      1.68    0.71    0.88
  WS02006109WS02006110 CONDUIT    781.18     0  03:02      1.55    1.50    1.00
  WS02004411WS02004412 CONDUIT    793.00     0  03:04      1.13    1.13    0.83
  WS02004401WS02004402 CONDUIT    796.37     0  03:03      1.01    0.96    1.00
  WS02004413WS02003067 CONDUIT    792.86     0  03:05      1.38    0.34    0.68
  WS02004412WS02004413 CONDUIT    792.77     0  03:04      1.07    0.53    0.90
  WS02004410WS02004411 CONDUIT    793.74     0  03:04      1.13    1.08    0.84
  WS02004409WS02004410 CONDUIT    794.93     0  03:04      1.13    1.03    0.84
  WS02004407WS02004409 CONDUIT    796.48     0  03:03      1.61    0.28    0.60
  WS02004406WS02004407 CONDUIT    796.68     0  03:03      1.40    0.36    0.68
  WS02004405WS02004406 CONDUIT    796.67     0  03:03      1.01    1.57    1.00
  WS02004404WS02004405 CONDUIT    796.62     0  03:03      1.01    7.80    1.00
  WS02004403WS02004404 CONDUIT    796.45     0  03:03      1.01    0.58    1.00
  WS02004402WS02004403 CONDUIT    796.42     0  03:03      1.01    1.14    1.00
  WS02004139WS02001211 CONDUIT    374.27     0  07:00      0.69    0.47    0.59
  WS02004138WS02004139 CONDUIT    379.22     0  07:00      2.94    0.08    0.43
  WS02003067WS02003066 CONDUIT    793.34     0  03:05      1.50    0.25    0.47
  WS02001213WS02003059 CONDUIT    377.20     0  07:01      0.67    0.62    0.78
  WS02001212WS02001213 CONDUIT    377.04     0  07:01      1.29    0.58    0.47
  WS02001211WS02001212 CONDUIT    377.85     0  07:01      0.76    0.29    0.64
  WS02003072WS02003073 CONDUIT   1009.82     0  02:46      1.77    2.18    0.50
  WS02003069WS02003072 CONDUIT   1009.78     0  02:46      1.66    0.49    0.53
  WS02003060WS02003069 CONDUIT   1009.37     0  02:45      1.90    0.40    0.48
  WS02003059WS02003060 CONDUIT    377.96     0  07:02      0.91    0.25    0.68
  HS02004901HS02004770 CONDUIT     32.25     0  03:01      0.09    0.12    0.50
  HS02004876HS02004881 CONDUIT    119.33     0  03:01      1.17    1.27    0.15
  HS02004870HS02004876 CONDUIT     96.14     0  03:01      0.79    0.06    0.17
  HS02004842HS02004848 CONDUIT     15.11     0  03:01      0.07    0.01    0.33
  HS02004837HS02004842 CONDUIT     16.10     0  03:03      0.41    0.01    0.34
  HS02004830HS02004837 CONDUIT     61.24     0  03:01      0.66    0.06    0.13
  HS02004824HS02004830 CONDUIT     60.79     0  03:01      0.63    0.08    0.15
  HS02004817HS02004824 CONDUIT    117.39     0  03:02      0.30    0.05    0.56
  HS02004770HS02004777 CONDUIT    159.99     0  03:01      0.45    0.29    0.51
  HS02004799HS02004480 CONDUIT    387.39     0  03:01      1.00    0.49    0.56
  HS02004792HS02004799 CONDUIT    353.07     0  03:01      1.12    0.22    0.45
  HS02004788HS02004792 CONDUIT    202.14     0  03:02      1.22    0.13    0.24
  HS02004785HS02004788 CONDUIT    156.69     0  03:02      0.85    1.18    0.26
  HS02004777HS02004785 CONDUIT    157.13     0  03:01      0.53    0.19    0.42
  HS02004480HS02004478 CONDUIT    456.76     0  03:01      1.47    1.92    0.44
  HS02004479HS02004480 CONDUIT     74.07     0  03:02      0.22    0.07    0.53
  HS02004862HS02004870 CONDUIT     73.11     0  03:01      0.77    0.08    0.14
  HS02004848HS02004852 CONDUIT     35.11     0  03:01      0.52    0.04    0.10
  HS02004856HS02004862 CONDUIT     51.23     0  03:01      0.58    0.05    0.13
  HS02004852HS02004856 CONDUIT     35.03     0  03:02      0.32    0.04    0.16
  HS02004802HS02004478 CONDUIT    160.68     0  03:04      0.54    0.14    0.45
  HS02004478WS02006287 CONDUIT    609.85     0  03:02      2.03    0.17    0.33
  HS02004817HS02004807 CONDUIT    120.81     0  03:04      0.24    0.07    0.73
  HS02004807HS02004802 CONDUIT    156.92     0  03:03      0.45    0.30    0.51
  YS02001759YS02001757 CONDUIT    784.35     0  02:56      1.00    0.56    1.00
  YS02001762YS02001759 CONDUIT    389.13     0  02:55      0.50    0.45    1.00
  YS02001765YS02001762 CONDUIT    389.09     0  02:55      0.50    0.36    1.00
  YS02001770YS02001767 CONDUIT    388.49     0  02:55      0.49    1.54    1.00
  YS02001774YS02001770 CONDUIT    400.04     0  03:28      0.51    0.26    1.00
  YS02001779YS02001774 CONDUIT    401.53     0  03:28      0.51    0.20    1.00
  YS02001649YS02001757 CONDUIT   1018.08     0  02:51      1.30    0.62    1.00
  YS02001767YS02001765 CONDUIT    389.22     0  02:55      0.50    0.49    1.00
  YS02006561YS02001783 CONDUIT    969.08     0  03:00      2.12    0.50    1.00
  YS02001783YS02001784 CONDUIT    969.07     0  03:01      1.93    1.34    1.00
  YS02001784YS02001785 CONDUIT    970.07     0  03:01      1.93    2.26    1.00
  YS02001788YS02001790 CONDUIT    970.20     0  03:01      2.18    0.72    1.00
  YS02001790YS02001791 CONDUIT    970.39     0  03:01      2.58    1.06    1.00
  YS02001791YS02001793 CONDUIT    970.56     0  03:01      5.06    0.42    1.00
  YS02001910YS02001907 CONDUIT    541.79     0  03:01      0.69    0.31    1.00
  YS02001786YS02001788 CONDUIT    970.18     0  03:01      2.13    1.87    1.00
  YS02001915YS02001910 CONDUIT    541.78     0  03:01      0.69    0.27    1.00
  YS02001918YS02001915 CONDUIT    274.64     0  02:52      0.44    0.15    1.00
  YS02001923YS02001920 CONDUIT    271.91     0  02:52      0.72    0.12    1.00
  YS02001926YS02001923 CONDUIT    270.78     0  02:53      0.82    0.39    0.95
  YS02001929YS02001926 CONDUIT    194.88     0  02:53      0.87    0.09    0.86
  YS02001920YS02001918 CONDUIT    274.87     0  02:52      0.70    0.27    1.00
  YS02001629YS02163301 CONDUIT    228.30     0  02:50      0.29    0.28    1.00
  YS02001619YS02001622 CONDUIT    337.80     0  03:01      0.60    0.50    1.00
  YS02001622YS02001625 CONDUIT    338.14     0  03:01      0.43    0.18    1.00
  YS02001625YS02001629 CONDUIT    227.51     0  02:50      0.29    0.11    1.00
  YS02163301YS02001633 CONDUIT    228.81     0  02:50      0.29    0.22    1.00
  YS02163601YS02164001 CONDUIT    480.72     0  02:51      0.61    0.43    1.00
  YS02164001YS02001641 CONDUIT    480.51     0  02:50      0.61    0.66    1.00
  YS02001641YS02001644 CONDUIT    480.45     0  02:50      0.61    1.55    1.00
  YS02001647YS02001649 CONDUIT    731.90     0  02:51      0.93    0.39    1.00
  YS02006553YS02006556 CONDUIT    672.55     0  03:32      0.86    0.58    1.00
  YS02006556YS02006558 CONDUIT    672.68     0  03:32      0.86    0.53    1.00
  YSB6556YSB1171       CONDUIT     41.33     0  03:02      0.13    0.04    0.80
  YS02001907YS02006553 CONDUIT    672.57     0  03:32      0.75    0.79    1.00
  YS02006558YS02006561 CONDUIT    969.09     0  03:00      3.43    2.14    1.00
  YS02001633YS02163601 CONDUIT    480.61     0  02:51      0.61    0.50    1.00
  YS02001644YS02001647 CONDUIT    731.95     0  02:51      0.93    0.43    1.00
  YS02001745YS02001748 CONDUIT    658.98     0  02:46      1.48    0.25    0.94
  YS02001748YS02001751 CONDUIT    398.70     0  03:01      1.03    0.20    1.00
  YS02001751YS02001754 CONDUIT    398.69     0  03:01      0.84    0.19    1.00
  YS02001754YS02001757 CONDUIT    398.87     0  03:01      0.51    0.16    1.00
  YS02001882YS02001884 CONDUIT     31.26     0  02:38      0.08    0.04    1.00
  YS02001884YS02001887 CONDUIT     51.07     0  02:38      0.08    0.07    1.00
  YS02001890YS02001895 CONDUIT    517.31     0  03:04      0.66    0.24    1.00
  YS02001895YS02001898 CONDUIT    517.14     0  03:04      0.66    0.90    1.00
  YS02001898YS02001901 CONDUIT    517.19     0  03:04      0.66    0.33    1.00
  YS02001901YS02001904 CONDUIT    517.20     0  03:04      0.66    0.80    1.00
  YS02001904YS02001907 CONDUIT    517.28     0  03:04      0.66    0.18    1.00
  YS02001887YS02001890 CONDUIT    623.16     0  03:01      0.79    1.07    1.00
  YS02001652YS02001649 CONDUIT    485.91     0  03:01      0.62    0.24    1.00
  YS02001655YS02001652 CONDUIT    485.82     0  03:01      0.89    0.24    1.00
  YS02001658YS02001655 CONDUIT    486.04     0  03:01      1.18    0.21    1.00
  YS02001661YS02001658 CONDUIT    659.29     0  02:45      1.56    0.26    1.00
  YS02001664YS02001661 CONDUIT    742.02     0  02:55      1.63    0.23    0.73
  YSB1154YSB6556       CONDUIT     41.77     0  03:01      0.19    0.08    0.69
  YSB1174YSB1171       CONDUIT     34.49     0  03:01      0.10    0.05    0.81
  YSB1171HS02004479    CONDUIT     72.19     0  03:02      0.54    0.05    0.65
  HS02004881HS02006253 CONDUIT    131.62     0  03:01      1.69    0.03    0.37
  YS02001793JiankangQianchi CONDUIT   1049.21     0  02:31     12.45    0.08    1.00
  YS02001757CaochengTiaoxuchi CONDUIT   1986.11     0  02:52      2.83    0.87    1.00
  WSF200WS02003060     CONDUIT    793.92     0  03:05      2.00    0.18    0.38
  1                    CONDUIT   1011.94     0  02:46      3.34    0.35    0.41
  2                    CONDUIT    302.15     0  03:00      6.43    0.72    0.63
  3                    CONDUIT    540.05     0  02:50      9.92    0.86    0.72
  4                    CONDUIT      0.00     0  00:00      0.00    0.00    0.00
  CC-Pump-1            PUMP       200.00     0  02:30              1.00
  CC-Pump-2            PUMP       200.00     0  02:06              1.00
  JK-Pump-1            PUMP       300.00     0  00:00              1.00
  JK-Pump-2            PUMP       300.00     0  04:10              1.00
  XR-Pump-1            PUMP        95.00     0  01:50              1.00
  XR-Pump-2            PUMP        95.00     0  00:00              1.00
  XR-Pump-3            PUMP        95.00     0  00:00              1.00
  XR-Pump-4            PUMP        95.00     0  00:20              1.00
  
  
  ***************************
  Flow Classification Summary
  ***************************
  
  -------------------------------------------------------------------------------------
                      Adjusted    ---------- Fraction of Time in Flow Class ---------- 
                       /Actual         Up    Down  Sub   Sup   Up    Down  Norm  Inlet 
  Conduit               Length    Dry  Dry   Dry   Crit  Crit  Crit  Crit  Ltd   Ctrl  
  -------------------------------------------------------------------------------------
  WS02003066WSF200        1.00   0.05  0.01  0.00  0.00  0.94  0.00  0.00  0.62  0.00
  WS02006287WS02006284    1.00   0.04  0.01  0.00  0.59  0.36  0.00  0.00  0.67  0.00
  WS02006284WS02006280    1.00   0.04  0.00  0.00  0.00  0.00  0.00  0.96  0.00  0.00
  WS02006280WS02006229    1.00   0.04  0.00  0.00  0.00  0.00  0.00  0.96  0.00  0.00
  WS02006229WS02006228    1.00   0.00  0.00  0.00  0.99  0.00  0.00  0.01  0.00  0.00
  WS02006256WS02006235    1.00   0.00  0.00  0.00  1.00  0.00  0.00  0.00  0.00  0.00
  WS02006253WS02006251    1.00   0.03  0.01  0.00  0.96  0.00  0.00  0.00  0.00  0.00
  WS02006252WS02006251    1.00   0.08  0.00  0.00  0.00  0.00  0.92  0.00  0.00  0.00
  WS02006251WS02006249    1.00   0.00  0.00  0.00  1.00  0.00  0.00  0.00  0.24  0.00
  WS02006249WS02006248    1.00   0.00  0.02  0.00  0.90  0.00  0.08  0.00  0.00  0.00
  WS02006248WS02006247    1.00   0.02  0.00  0.00  0.98  0.00  0.00  0.00  0.12  0.00
  WS02006247WS02006245    1.00   0.02  0.00  0.00  0.98  0.00  0.00  0.00  0.00  0.00
  WS02006245WS02006243    1.00   0.01  0.00  0.00  0.95  0.00  0.00  0.03  0.01  0.00
  WS02006243WS02006242    1.00   0.01  0.00  0.00  0.99  0.00  0.00  0.00  0.21  0.00
  WS02006242WS02006240    1.00   0.00  0.00  0.00  1.00  0.00  0.00  0.00  0.00  0.00
  WS02006240WS02006239    1.00   0.00  0.00  0.00  0.97  0.00  0.00  0.03  0.01  0.00
  WS02006239WS02006238    1.00   0.00  0.00  0.00  1.00  0.00  0.00  0.00  0.02  0.00
  WS02006238WS02006235    1.00   0.00  0.00  0.00  1.00  0.00  0.00  0.00  0.00  0.00
  WS02006235WS02006234    1.00   0.00  0.00  0.00  0.97  0.00  0.03  0.00  0.00  0.00
  WS02006234WS02006232    1.00   0.00  0.00  0.00  1.00  0.00  0.00  0.00  0.03  0.00
  WS02006232WS02006231    1.00   0.00  0.00  0.00  0.99  0.00  0.00  0.00  0.00  0.00
  WS02006231WS02006230    1.00   0.00  0.00  0.00  0.69  0.00  0.31  0.00  0.00  0.00
  WS02006230WS02006229    1.00   0.00  0.00  0.00  0.99  0.00  0.00  0.01  0.01  0.00
  WS02006228WS02006109    1.00   0.00  0.00  0.00  1.00  0.00  0.00  0.00  0.00  0.00
  WS02006116WS02004401    1.00   0.02  0.00  0.00  0.98  0.00  0.00  0.00  0.00  0.00
  WS02006115WS02006116    1.00   0.02  0.00  0.00  0.97  0.00  0.00  0.01  0.00  0.00
  WS02006113WS02006111    1.00   0.02  0.00  0.00  0.03  0.95  0.00  0.00  0.10  0.00
  WS02006112WS02006115    1.00   0.02  0.00  0.00  0.98  0.00  0.00  0.00  0.00  0.00
  WS02006111WS02006112    1.00   0.02  0.00  0.00  0.98  0.00  0.00  0.00  0.89  0.00
  WS02006110WS02006113    1.00   0.01  0.01  0.00  0.98  0.00  0.00  0.00  0.00  0.00
  WS02006109WS02006110    1.00   0.00  0.01  0.00  0.98  0.00  0.01  0.00  0.00  0.00
  WS02004411WS02004412    1.00   0.04  0.00  0.00  0.96  0.00  0.00  0.00  0.00  0.00
  WS02004401WS02004402    1.00   0.02  0.00  0.00  0.98  0.00  0.00  0.00  0.00  0.00
  WS02004413WS02003067    1.00   0.04  0.01  0.00  0.00  0.00  0.95  0.00  0.00  0.00
  WS02004412WS02004413    1.00   0.04  0.00  0.00  0.96  0.00  0.00  0.00  0.03  0.00
  WS02004410WS02004411    1.00   0.04  0.00  0.00  0.96  0.00  0.00  0.00  0.04  0.00
  WS02004409WS02004410    1.00   0.04  0.00  0.00  0.96  0.00  0.00  0.00  0.03  0.00
  WS02004407WS02004409    1.00   0.04  0.00  0.00  0.96  0.00  0.00  0.00  0.89  0.00
  WS02004406WS02004407    1.00   0.00  0.04  0.00  0.96  0.00  0.00  0.00  0.00  0.00
  WS02004405WS02004406    1.00   0.00  0.00  0.00  1.00  0.00  0.00  0.00  0.01  0.00
  WS02004404WS02004405    1.00   0.00  0.00  0.00  1.00  0.00  0.00  0.00  0.00  0.00
  WS02004403WS02004404    1.00   0.00  0.02  0.00  0.98  0.00  0.00  0.00  0.01  0.00
  WS02004402WS02004403    1.00   0.02  0.00  0.00  0.98  0.00  0.00  0.00  0.00  0.00
  WS02004139WS02001211    1.00   0.00  0.00  0.00  1.00  0.00  0.00  0.00  0.00  0.00
  WS02004138WS02004139    1.00   0.00  0.00  0.00  0.99  0.01  0.00  0.00  1.00  0.00
  WS02003067WS02003066    1.00   0.05  0.00  0.00  0.94  0.00  0.00  0.00  0.00  0.00
  WS02001213WS02003059    1.00   0.00  0.00  0.00  0.99  0.00  0.00  0.00  0.00  0.00
  WS02001212WS02001213    1.00   0.00  0.00  0.00  0.86  0.00  0.14  0.00  0.00  0.00
  WS02001211WS02001212    1.00   0.00  0.00  0.00  1.00  0.00  0.00  0.00  0.00  0.00
  WS02003072WS02003073    1.00   0.00  0.00  0.00  0.00  0.00  0.00  1.00  0.00  0.00
  WS02003069WS02003072    1.00   0.00  0.00  0.00  0.99  0.01  0.00  0.00  0.23  0.00
  WS02003060WS02003069    1.00   0.00  0.00  0.00  0.99  0.01  0.00  0.00  0.13  0.00
  WS02003059WS02003060    1.00   0.00  0.00  0.00  1.00  0.00  0.00  0.00  0.01  0.00
  HS02004901HS02004770    1.00   0.04  0.00  0.00  0.96  0.00  0.00  0.00  0.01  0.00
  HS02004876HS02004881    1.00   0.02  0.00  0.00  0.86  0.12  0.00  0.00  0.00  0.00
  HS02004870HS02004876    1.00   0.01  0.00  0.00  0.99  0.00  0.00  0.00  0.95  0.00
  HS02004842HS02004848    1.00   0.00  0.04  0.00  0.96  0.00  0.00  0.00  0.58  0.00
  HS02004837HS02004842    1.00   0.00  0.00  0.00  0.99  0.01  0.00  0.00  0.11  0.00
  HS02004830HS02004837    1.00   0.00  0.00  0.00  1.00  0.00  0.00  0.00  0.99  0.00
  HS02004824HS02004830    1.00   0.00  0.00  0.00  1.00  0.00  0.00  0.00  0.01  0.00
  HS02004817HS02004824    1.00   0.00  0.00  0.00  1.00  0.00  0.00  0.00  0.98  0.00
  HS02004770HS02004777    1.00   0.00  0.04  0.00  0.96  0.00  0.00  0.00  0.04  0.00
  HS02004799HS02004480    1.00   0.00  0.02  0.00  0.95  0.00  0.02  0.00  0.00  0.00
  HS02004792HS02004799    1.00   0.00  0.00  0.00  0.99  0.01  0.00  0.00  0.98  0.00
  HS02004788HS02004792    1.00   0.00  0.00  0.00  0.99  0.01  0.00  0.00  0.98  0.00
  HS02004785HS02004788    1.00   0.00  0.00  0.00  1.00  0.00  0.00  0.00  0.00  0.00
  HS02004777HS02004785    1.00   0.00  0.00  0.00  1.00  0.00  0.00  0.00  0.15  0.00
  HS02004480HS02004478    1.00   0.04  0.00  0.00  0.65  0.00  0.00  0.30  0.00  0.00
  HS02004479HS02004480    1.00   0.03  0.00  0.00  0.97  0.00  0.00  0.00  0.13  0.00
  HS02004862HS02004870    1.00   0.00  0.00  0.00  1.00  0.00  0.00  0.00  0.06  0.00
  HS02004848HS02004852    1.00   0.04  0.00  0.00  0.96  0.00  0.00  0.00  0.64  0.00
  HS02004856HS02004862    1.00   0.00  0.05  0.00  0.95  0.00  0.00  0.00  0.79  0.00
  HS02004852HS02004856    1.00   0.04  0.00  0.00  0.96  0.00  0.00  0.00  0.81  0.00
  HS02004802HS02004478    1.00   0.04  0.00  0.00  0.96  0.00  0.00  0.00  0.03  0.00
  HS02004478WS02006287    1.00   0.05  0.00  0.00  0.71  0.24  0.00  0.00  0.66  0.00
  HS02004817HS02004807    1.00   0.00  0.04  0.00  0.96  0.00  0.00  0.00  0.01  0.00
  HS02004807HS02004802    1.00   0.04  0.00  0.00  0.96  0.00  0.00  0.00  0.00  0.00
  YS02001759YS02001757    1.00   0.00  0.00  0.00  1.00  0.00  0.00  0.00  0.17  0.00
  YS02001762YS02001759    1.00   0.00  0.00  0.00  1.00  0.00  0.00  0.00  0.04  0.00
  YS02001765YS02001762    1.00   0.00  0.00  0.00  1.00  0.00  0.00  0.00  0.17  0.00
  YS02001770YS02001767    1.00   0.00  0.00  0.00  1.00  0.00  0.00  0.00  0.00  0.00
  YS02001774YS02001770    1.00   0.00  0.04  0.00  0.96  0.00  0.00  0.00  0.04  0.00
  YS02001779YS02001774    1.00   0.00  0.00  0.00  1.00  0.00  0.00  0.00  0.22  0.00
  YS02001649YS02001757    1.00   0.00  0.00  0.00  1.00  0.00  0.00  0.00  0.17  0.00
  YS02001767YS02001765    1.00   0.00  0.00  0.00  1.00  0.00  0.00  0.00  0.01  0.00
  YS02006561YS02001783    1.00   0.06  0.00  0.00  0.36  0.58  0.00  0.00  0.53  0.00
  YS02001783YS02001784    1.00   0.00  0.06  0.00  0.94  0.00  0.00  0.00  0.01  0.00
  YS02001784YS02001785    1.00   0.00  0.00  0.00  1.00  0.00  0.00  0.00  0.21  0.00
  YS02001788YS02001790    1.00   0.00  0.00  0.00  0.44  0.56  0.00  0.00  0.47  0.00
  YS02001790YS02001791    1.00   0.00  0.00  0.00  0.40  0.60  0.00  0.00  0.44  0.00
  YS02001791YS02001793    1.00   0.00  0.00  0.00  0.42  0.58  0.00  0.00  0.04  0.00
  YS02001910YS02001907    1.00   0.00  0.00  0.00  0.98  0.00  0.00  0.02  0.13  0.00
  YS02001786YS02001788    1.00   0.00  0.00  0.00  0.43  0.57  0.00  0.00  0.00  0.00
  YS02001915YS02001910    1.00   0.00  0.00  0.00  0.99  0.01  0.00  0.00  0.19  0.00
  YS02001918YS02001915    1.00   0.00  0.01  0.00  0.98  0.01  0.00  0.00  0.56  0.00
  YS02001923YS02001920    1.00   0.00  0.00  0.00  1.00  0.00  0.00  0.00  0.82  0.00
  YS02001926YS02001923    1.00   0.00  0.03  0.00  0.17  0.00  0.80  0.00  0.00  0.00
  YS02001929YS02001926    1.00   0.00  0.04  0.00  0.96  0.00  0.00  0.00  0.75  0.00
  YS02001920YS02001918    1.00   0.00  0.01  0.00  0.99  0.00  0.00  0.00  0.00  0.00
  YS02001629YS02163301    1.00   0.05  0.00  0.00  0.95  0.00  0.00  0.00  0.00  0.00
  YS02001619YS02001622    1.00   0.04  0.00  0.00  0.96  0.00  0.00  0.00  0.00  0.00
  YS02001622YS02001625    1.00   0.04  0.00  0.00  0.96  0.00  0.00  0.00  0.08  0.00
  YS02001625YS02001629    1.00   0.04  0.02  0.00  0.92  0.00  0.02  0.00  0.00  0.00
  YS02163301YS02001633    1.00   0.00  0.05  0.00  0.95  0.00  0.00  0.00  0.00  0.00
  YS02163601YS02164001    1.00   0.00  0.03  0.00  0.97  0.00  0.00  0.00  0.00  0.00
  YS02164001YS02001641    1.00   0.01  0.02  0.00  0.97  0.00  0.00  0.00  0.06  0.00
  YS02001641YS02001644    1.00   0.00  0.01  0.00  0.99  0.00  0.00  0.00  0.00  0.00
  YS02001647YS02001649    1.00   0.00  0.05  0.00  0.95  0.00  0.00  0.00  0.01  0.00
  YS02006553YS02006556    1.00   0.01  0.00  0.00  0.99  0.00  0.00  0.00  0.03  0.00
  YS02006556YS02006558    1.00   0.00  0.00  0.00  1.00  0.00  0.00  0.00  0.00  0.00
  YSB6556YSB1171          1.00   0.03  0.01  0.00  0.96  0.00  0.00  0.00  0.00  0.00
  YS02001907YS02006553    1.00   0.00  0.02  0.00  0.98  0.00  0.00  0.00  0.00  0.00
  YS02006558YS02006561    1.00   0.06  0.00  0.00  0.20  0.74  0.00  0.00  0.44  0.00
  YS02001633YS02163601    1.00   0.00  0.01  0.00  0.99  0.00  0.00  0.00  0.16  0.00
  YS02001644YS02001647    1.00   0.00  0.05  0.00  0.95  0.00  0.00  0.00  0.00  0.00
  YS02001745YS02001748    1.00   0.00  0.00  0.00  0.87  0.01  0.00  0.11  0.05  0.00
  YS02001748YS02001751    1.00   0.00  0.00  0.00  0.97  0.03  0.00  0.00  0.15  0.00
  YS02001751YS02001754    1.00   0.00  0.00  0.00  0.94  0.00  0.00  0.06  0.02  0.00
  YS02001754YS02001757    1.00   0.00  0.00  0.00  0.99  0.01  0.00  0.00  0.21  0.00
  YS02001882YS02001884    1.00   0.05  0.00  0.00  0.95  0.00  0.00  0.00  0.00  0.00
  YS02001884YS02001887    1.00   0.03  0.01  0.00  0.96  0.00  0.00  0.00  0.00  0.00
  YS02001890YS02001895    1.00   0.00  0.05  0.00  0.95  0.00  0.00  0.00  0.00  0.00
  YS02001895YS02001898    1.00   0.05  0.00  0.00  0.94  0.00  0.01  0.00  0.00  0.00
  YS02001898YS02001901    1.00   0.05  0.00  0.00  0.95  0.00  0.00  0.00  0.03  0.00
  YS02001901YS02001904    1.00   0.05  0.00  0.00  0.95  0.00  0.00  0.00  0.00  0.00
  YS02001904YS02001907    1.00   0.00  0.05  0.00  0.95  0.00  0.00  0.00  0.00  0.00
  YS02001887YS02001890    1.00   0.00  0.00  0.00  0.98  0.00  0.02  0.00  0.00  0.00
  YS02001652YS02001649    1.00   0.00  0.00  0.00  1.00  0.00  0.00  0.00  0.19  0.00
  YS02001655YS02001652    1.00   0.00  0.00  0.00  0.94  0.00  0.00  0.06  0.03  0.00
  YS02001658YS02001655    1.00   0.00  0.04  0.00  0.92  0.03  0.00  0.00  0.13  0.00
  YS02001661YS02001658    1.00   0.04  0.00  0.00  0.87  0.08  0.00  0.00  0.08  0.00
  YS02001664YS02001661    1.00   0.04  0.00  0.00  0.85  0.11  0.00  0.00  0.23  0.00
  YSB1154YSB6556          1.00   0.04  0.00  0.00  0.96  0.00  0.00  0.00  0.02  0.00
  YSB1174YSB1171          1.00   0.03  0.01  0.00  0.96  0.00  0.00  0.00  0.00  0.00
  YSB1171HS02004479       1.00   0.03  0.00  0.00  0.97  0.00  0.00  0.00  0.11  0.00
  HS02004881HS02006253    1.00   0.03  0.00  0.00  0.76  0.02  0.00  0.19  0.61  0.00
  YS02001793JiankangQianchi    1.00   0.00  0.00  0.00  0.60  0.40  0.00  0.00  0.14  0.00
  YS02001757CaochengTiaoxuchi    1.00   0.00  0.08  0.00  0.87  0.05  0.00  0.00  0.00  0.00
  WSF200WS02003060        1.00   0.00  0.05  0.00  0.54  0.41  0.00  0.00  0.26  0.00
  1                       1.00   0.00  0.00  0.00  0.00  1.00  0.00  0.00  0.33  0.00
  2                       1.00   0.53  0.00  0.00  0.00  0.47  0.00  0.00  0.09  0.00
  3                       1.00   0.09  0.00  0.00  0.00  0.91  0.00  0.00  0.26  0.00
  4                       1.00   1.00  0.00  0.00  0.00  0.00  0.00  0.00  0.00  0.00
  
  
  *************************
  Conduit Surcharge Summary
  *************************
  
  ----------------------------------------------------------------------------
                                                           Hours        Hours 
                         --------- Hours Full --------   Above Full   Capacity
  Conduit                Both Ends  Upstream  Dnstream   Normal Flow   Limited
  ----------------------------------------------------------------------------
  WS02006229WS02006228        2.66      2.85      2.66      4.70         2.66
  WS02006256WS02006235        5.97      5.98      7.57      2.87         0.01
  WS02006253WS02006251        0.10      0.10      0.18      0.01         0.01
  WS02006252WS02006251        1.49      1.49      2.64      2.35         0.01
  WS02006251WS02006249        0.01      0.12      0.01      1.78         0.01
  WS02006249WS02006248        0.01      0.01      0.01      4.41         0.01
  WS02006248WS02006247        0.01      0.01      0.19      0.01         0.01
  WS02006247WS02006245        0.19      0.25      0.19      4.89         0.19
  WS02006245WS02006243        0.22      0.22      0.47      0.02         0.01
  WS02006243WS02006242        0.59      0.59      2.11      0.01         0.01
  WS02006242WS02006240        0.93      0.93      2.51      2.34         0.01
  WS02006240WS02006239        0.97      0.97      1.02      0.01         0.01
  WS02006239WS02006238        2.43      2.43      2.55      0.01         0.01
  WS02006238WS02006235        2.44      2.44      2.78      0.01         0.01
  WS02006235WS02006234        1.04      1.04      2.26      5.97         0.01
  WS02006234WS02006232        1.11      1.11      2.87      0.01         0.01
  WS02006232WS02006231        0.82      0.82      2.87      0.01         0.01
  WS02006231WS02006230        0.73      0.73      0.91      6.06         0.01
  WS02006230WS02006229        3.55      4.36      3.55      6.16         3.55
  WS02006228WS02006109        2.76      3.28      2.76      5.44         2.76
  WS02006116WS02004401        0.29      0.29      0.30      0.21         0.22
  WS02006115WS02006116        0.13      0.13      0.14      0.06         0.07
  WS02006112WS02006115        0.10      0.10      1.16      0.01         0.01
  WS02006111WS02006112        0.01      0.01      4.76      0.01         0.01
  WS02006110WS02006113        0.01      0.01      3.08      0.01         0.01
  WS02006109WS02006110        1.12      1.12      3.28      1.12         0.01
  WS02004411WS02004412        0.01      0.01      0.01      0.27         0.01
  WS02004401WS02004402        0.30      0.30      0.34      0.01         0.01
  WS02004410WS02004411        0.01      0.01      0.01      0.19         0.01
  WS02004409WS02004410        0.01      0.01      0.01      0.08         0.01
  WS02004406WS02004407        0.01      0.01      0.62      0.01         0.01
  WS02004405WS02004406        0.62      0.71      0.62      1.14         0.62
  WS02004404WS02004405        0.71      0.77      0.71      5.90         0.71
  WS02004403WS02004404        0.36      0.36      0.77      0.01         0.01
  WS02004402WS02004403        0.34      0.34      0.36      0.29         0.28
  WS02003072WS02003073        0.01      0.01      0.01      5.40         0.01
  HS02004876HS02004881        0.01      0.01      0.01      0.17         0.01
  HS02004785HS02004788        0.01      0.01      0.01      0.10         0.01
  HS02004480HS02004478        0.01      0.01      0.01      0.52         0.01
  YS02001759YS02001757        5.54      5.54      5.62      0.01         0.01
  YS02001762YS02001759        5.51      5.51      5.54      0.01         0.01
  YS02001765YS02001762        5.48      5.48      5.51      0.01         0.01
  YS02001770YS02001767        5.46      5.46      5.46      0.33         0.82
  YS02001774YS02001770        5.39      5.39      5.50      0.01         0.01
  YS02001779YS02001774        5.24      5.24      5.50      0.01         0.01
  YS02001649YS02001757        5.52      5.52      5.62      0.01         0.01
  YS02001767YS02001765        5.46      5.46      5.48      0.01         0.01
  YS02006561YS02001783        0.92      0.92      1.54      0.01         0.01
  YS02001783YS02001784        1.54      1.54      1.59      1.28         1.24
  YS02001784YS02001785        1.55      1.59      1.55      2.22         1.55
  YS02001788YS02001790        1.54      1.54      2.36      0.01         0.01
  YS02001790YS02001791        2.36      2.36      2.40      0.76         0.75
  YS02001791YS02001793        2.40      2.40      2.52      0.01         0.01
  YS02001910YS02001907        1.24      1.24      1.65      0.01         0.01
  YS02001786YS02001788        1.54      1.55      1.54      1.83         1.53
  YS02001915YS02001910        1.03      1.03      1.24      0.01         0.01
  YS02001918YS02001915        0.79      0.79      1.03      0.01         0.01
  YS02001923YS02001920        0.63      0.63      0.83      0.01         0.01
  YS02001920YS02001918        0.79      0.79      0.83      0.01         0.01
  YS02001629YS02163301        5.42      5.42      5.45      0.01         0.01
  YS02001619YS02001622        5.11      5.11      5.14      0.01         0.01
  YS02001622YS02001625        5.14      5.14      5.28      0.01         0.01
  YS02001625YS02001629        5.12      5.12      5.28      0.01         0.01
  YS02163301YS02001633        5.45      5.45      5.49      0.01         0.01
  YS02163601YS02164001        5.49      5.49      5.52      0.01         0.01
  YS02164001YS02001641        5.49      5.49      5.50      0.01         0.02
  YS02001641YS02001644        5.50      5.50      5.50      1.47         1.51
  YS02001647YS02001649        5.27      5.27      5.52      0.01         0.01
  YS02006553YS02006556        1.45      1.45      1.71      0.01         0.01
  YS02006556YS02006558        1.55      1.55      1.78      0.01         0.01
  YS02001907YS02006553        2.24      2.24      2.45      0.01         0.01
  YS02006558YS02006561        1.13      1.41      1.13      2.09         1.13
  YS02001633YS02163601        5.48      5.48      5.52      0.01         0.01
  YS02001644YS02001647        5.27      5.27      5.50      0.01         0.01
  YS02001745YS02001748        0.01      0.01      5.01      0.01         0.01
  YS02001748YS02001751        5.03      5.03      5.09      0.01         0.01
  YS02001751YS02001754        5.09      5.09      5.24      0.01         0.01
  YS02001754YS02001757        5.27      5.27      5.62      0.01         0.01
  YS02001882YS02001884        1.04      1.04      1.08      0.01         0.01
  YS02001884YS02001887        1.13      1.13      1.16      0.01         0.01
  YS02001890YS02001895        1.02      1.02      1.26      0.01         0.01
  YS02001895YS02001898        1.00      1.00      1.02      0.01         0.01
  YS02001898YS02001901        1.02      1.02      1.13      0.01         0.01
  YS02001901YS02001904        1.10      1.10      1.13      0.01         0.01
  YS02001904YS02001907        1.10      1.10      1.74      0.01         0.01
  YS02001887YS02001890        1.19      1.19      1.22      0.07         0.01
  YS02001652YS02001649        5.27      5.27      5.52      0.01         0.01
  YS02001655YS02001652        5.12      5.12      5.26      0.01         0.01
  YS02001658YS02001655        5.02      5.02      5.12      0.01         0.01
  YS02001661YS02001658        0.23      0.23      5.02      0.01         0.01
  YS02001664YS02001661        0.01      0.01      1.17      0.01         0.01
  YS02001793JiankangQianchi        2.48      2.48      3.41      0.01         0.01
  YS02001757CaochengTiaoxuchi        4.80      4.80      5.62      0.01         0.01
  
  
  ***************
  Pumping Summary
  ***************
  
  ---------------------------------------------------------------------------------------------------------
                                                  Min       Avg       Max     Total     Power    % Time Off
                        Percent   Number of      Flow      Flow      Flow    Volume     Usage    Pump Curve
  Pump                 Utilized   Start-Ups       LPS       LPS       LPS  10^6 ltr     Kw-hr    Low   High
  ---------------------------------------------------------------------------------------------------------
  CC-Pump-1               61.65           3      0.00    162.86    200.00     2.819      4.45    0.0   13.6
  CC-Pump-2               55.25           7      0.00    142.33    200.00     2.242      3.90    0.0   15.2
  JK-Pump-1               89.37           5      0.00    178.42    300.00     3.558     43.73    0.0    0.0
  JK-Pump-2               68.07           7      0.00    160.39    300.00     2.513     26.64    0.0    0.0
  XR-Pump-1               82.96           7      0.00     71.33     95.00     1.624      8.79    0.0    0.0
  XR-Pump-2               74.47           7      0.00     61.05     95.00     1.283      8.40    0.0    0.0
  XR-Pump-3               82.97          10      0.00     66.41     95.00     1.539      9.23    0.0    0.0
  XR-Pump-4               78.71           7      0.00     59.65     95.00     1.425      9.27    0.0    0.0
  

  Analysis begun on:  Wed Dec 15 16:45:19 2021
  Analysis ended on:  Wed Dec 15 16:45:23 2021
  Total elapsed time: 00:00:04