
  EPA STORM WATER MANAGEMENT MODEL - VERSION 5.1 (Build 5.3.0.dev0)
  --------------------------------------------------------------

  WARNING 04: minimum elevation drop used for Conduit WS02004404WS02004405
  WARNING 03: negative offset ignored for Link YS02001904YS02001907
  
  *********************************************************
  NOTE: The summary statistics displayed in this report are
  based on results found at every computational time step,  
  not just on results from each reporting time step.
  *********************************************************
  
  ****************
  Analysis Options
  ****************
  Flow Units ............... LPS
  Process Models:
    Rainfall/Runoff ........ YES
    RDII ................... NO
    Snowmelt ............... NO
    Groundwater ............ NO
    Flow Routing ........... YES
    Ponding Allowed ........ NO
    Water Quality .......... NO
  Infiltration Method ...... HORTON
  Flow Routing Method ...... DYNWAVE
  Surcharge Method ......... EXTRAN
  Starting Date ............ 08/28/2015 08:00:00
  Ending Date .............. 08/28/2015 15:50:00
  Antecedent Dry Days ...... 8.0
  Report Time Step ......... 00:01:00
  Wet Time Step ............ 00:01:00
  Dry Time Step ............ 00:01:00
  Routing Time Step ........ 5.00 sec
  Variable Time Step ....... YES
  Maximum Trials ........... 8
  Number of Threads ........ 4
  Head Tolerance ........... 0.001500 m
  
  
  **************************        Volume         Depth
  Runoff Quantity Continuity     hectare-m            mm
  **************************     ---------       -------
  Total Precipitation ......         5.151        11.277
  Evaporation Loss .........         0.000         0.000
  Infiltration Loss ........         1.323         2.897
  Surface Runoff ...........         2.817         6.167
  Final Storage ............         1.011         2.215
  Continuity Error (%) .....        -0.015
  
  
  **************************        Volume        Volume
  Flow Routing Continuity        hectare-m      10^6 ltr
  **************************     ---------     ---------
  Dry Weather Inflow .......         0.616         6.165
  Wet Weather Inflow .......         2.816        28.156
  Groundwater Inflow .......         0.000         0.000
  RDII Inflow ..............         0.000         0.000
  External Inflow ..........         0.102         1.024
  External Outflow .........         1.998        19.976
  Flooding Loss ............         1.077        10.772
  Evaporation Loss .........         0.000         0.000
  Exfiltration Loss ........         0.000         0.000
  Initial Stored Volume ....         0.076         0.761
  Final Stored Volume ......         0.642         6.419
  Continuity Error (%) .....        -2.944
  
  
  *************************
  Highest Continuity Errors
  *************************
  Node HS02004842 (17.03%)
  Node JK-storage (-12.29%)
  Node YS02001884 (10.82%)
  Node YSB1171 (3.39%)
  Node YS02001774 (3.33%)
  
  
  ***************************
  Time-Step Critical Elements
  ***************************
  Link 3 (54.83%)
  Link WS02006252WS02006251 (39.02%)
  Link WS02006238WS02006235 (1.78%)
  
  
  ********************************
  Highest Flow Instability Indexes
  ********************************
  Link WS02006113WS02006111 (38)
  Link YS02163301YS02001633 (36)
  Link YS02001629YS02163301 (36)
  Link YS02001619YS02001622 (36)
  Link YS02163601YS02164001 (36)
  
  
  *************************
  Routing Time Step Summary
  *************************
  Minimum Time Step           :     0.19 sec
  Average Time Step           :     0.76 sec
  Maximum Time Step           :     5.00 sec
  Percent in Steady State     :    -0.00
  Average Iterations per Step :     4.50
  Percent Not Converging      :    21.77
  
  
  ***************************
  Subcatchment Runoff Summary
  ***************************
  
  ------------------------------------------------------------------------------------------------------------------------------
                            Total      Total      Total      Total     Imperv       Perv      Total       Total     Peak  Runoff
                           Precip      Runon       Evap      Infil     Runoff     Runoff     Runoff      Runoff   Runoff   Coeff
  Subcatchment                 mm         mm         mm         mm         mm         mm         mm    10^6 ltr      LPS
  ------------------------------------------------------------------------------------------------------------------------------
  sub0                      11.28       0.00       0.00       0.79       9.22       0.00       9.22        0.01     1.44   0.818
  sub1                      11.28       0.00       0.00       1.24       8.78       0.00       8.78        0.06    10.11   0.778
  sub2                      11.28       0.00       0.00       4.17       6.20       0.00       6.20        0.06     9.79   0.549
  sub3                      11.28       0.00       0.00       4.17       6.16       0.00       6.16        0.14    22.44   0.546
  sub4                      11.28       0.00       0.00       1.24       8.63       0.00       8.63        0.18    27.35   0.765
  sub5                      11.28       0.00       0.00       0.79       9.17       0.00       9.17        0.10    18.00   0.813
  sub7                      11.28       0.00       0.00       1.01       9.01       0.00       9.01        0.03     5.34   0.799
  sub8                      11.28       0.00       0.00       1.01       9.00       0.00       9.00        0.06    10.08   0.798
  sub9                      11.28       0.00       0.00       1.01       8.99       0.00       8.99        0.04     7.58   0.798
  sub10                     11.28       0.00       0.00       0.90       9.08       0.00       9.08        0.10    17.43   0.805
  sub11                     11.28       0.00       0.00       0.90       9.10       0.00       9.10        0.11    18.56   0.807
  sub12                     11.28       0.00       0.00       1.47       8.62       0.00       8.62        0.08    13.79   0.765
  sub14                     11.28       0.00       0.00       1.01       8.99       0.00       8.99        0.09    14.98   0.797
  sub15                     11.28       0.00       0.00       3.38       6.91       0.00       6.91        0.12    20.76   0.613
  sub16                     11.28       0.00       0.00       3.72       6.64       0.00       6.64        0.07    12.34   0.589
  sub17                     11.28       0.00       0.00       3.61       6.73       0.00       6.73        0.06    10.18   0.597
  sub22                     11.28       0.00       0.00       4.85       5.64       0.00       5.64        0.36    62.58   0.500
  sub23                     11.28       0.00       0.00       4.17       6.23       0.00       6.23        0.30    52.29   0.553
  sub60                     11.28       0.00       0.00       1.35       7.08       0.00       7.08        2.14   214.31   0.627
  sub61                     11.28       0.00       0.00       1.92       7.22       0.00       7.22        2.23   246.69   0.640
  sub62                     11.28       0.00       0.00       0.90       7.84       0.00       7.84        2.41   259.66   0.695
  sub63                     11.28       0.00       0.00       3.27       6.33       0.00       6.33        1.92   219.77   0.561
  sub64                     11.28       0.00       0.00       1.69       6.79       0.00       6.79        2.06   204.52   0.602
  sub65                     11.28       0.00       0.00       1.47       6.90       0.00       6.90        2.12   208.50   0.612
  sub66                     11.28       0.00       0.00       3.27       5.83       0.00       5.83        1.79   183.42   0.517
  sub67                     11.28       0.00       0.00       0.90       8.30       0.00       8.30        2.56   301.39   0.736
  sub68                     11.28       0.00       0.00       1.58       7.60       0.00       7.60        2.34   264.96   0.674
  sub69                     11.28       0.00       0.00       1.69       7.90       0.00       7.90        1.85   237.25   0.701
  sub70                     11.28       8.07       0.00       6.54      10.49       0.03      10.52        2.41   252.63   0.544
  sub71                     11.28       0.00       0.00       0.90       7.63       0.00       7.63        1.80   186.96   0.676
  sub72                     11.28       0.00       0.00       0.79       6.02       0.00       6.02        1.23   100.40   0.534
  sub73                     11.28      10.24       0.00       7.30      11.40       0.02      11.42        2.68   238.40   0.531
  sub74                     11.28       0.00       0.00       8.46       2.36       0.00       2.36        0.94   126.51   0.209
  
  
  ******************
  Node Depth Summary
  ******************
  
  ---------------------------------------------------------------------------------
                                 Average  Maximum  Maximum  Time of Max    Reported
                                   Depth    Depth      HGL   Occurrence   Max Depth
  Node                 Type       Meters   Meters   Meters  days hr:min      Meters
  ---------------------------------------------------------------------------------
  WS02001211           JUNCTION     0.63     0.77     5.61     0  07:50        0.77
  WS02001212           JUNCTION     0.36     0.47     5.54     0  07:50        0.47
  WS02001213           JUNCTION     0.60     0.71     5.48     0  04:42        0.71
  WS02003069           JUNCTION     0.43     0.56     5.14     0  02:33        0.56
  WS02003072           JUNCTION     0.50     0.62     4.99     0  02:34        0.62
  WS02003073           JUNCTION     0.30     0.38     4.44     0  02:34        0.38
  WS02003060           JUNCTION     0.39     0.49     5.42     0  02:32        0.49
  WS02003066           JUNCTION     0.24     0.31     5.87     0  02:13        0.31
  WS02003059           JUNCTION     0.66     0.77     5.46     0  02:32        0.77
  WS02003067           JUNCTION     0.59     0.72     6.04     0  02:12        0.72
  WS02004401           JUNCTION     0.70     0.90     6.90     0  02:10        0.90
  WS02004402           JUNCTION     0.73     0.93     6.89     0  02:10        0.93
  WS02004403           JUNCTION     0.75     0.94     6.87     0  02:13        0.94
  WS02004404           JUNCTION     0.82     1.01     6.86     0  02:11        1.01
  WS02004406           JUNCTION     0.83     0.99     6.82     0  02:12        0.99
  WS02004409           JUNCTION     0.52     0.71     6.48     0  02:11        0.71
  WS02004410           JUNCTION     0.53     0.72     6.44     0  02:12        0.72
  WS02004411           JUNCTION     0.55     0.73     6.41     0  02:12        0.73
  WS02004412           JUNCTION     0.56     0.73     6.37     0  02:12        0.73
  WS02004413           JUNCTION     0.72     0.89     6.36     0  02:12        0.89
  WS02004405           JUNCTION     0.82     1.00     6.85     0  02:11        1.00
  WS02006109           JUNCTION     0.79     1.02     7.64     0  02:07        1.02
  WS02006110           JUNCTION     0.77     0.96     7.54     0  02:13        0.96
  WS02006111           JUNCTION     0.23     0.30     7.01     0  02:09        0.30
  WS02006112           JUNCTION     0.87     1.19     7.07     0  02:15        1.18
  WS02006113           JUNCTION     0.36     0.48     7.37     0  02:09        0.48
  WS02006115           JUNCTION     0.59     0.81     6.95     0  02:10        0.81
  WS02006116           JUNCTION     0.67     0.89     6.93     0  02:11        0.89
  WS02006230           JUNCTION     0.77     1.08     7.82     0  02:08        1.08
  WS02006231           JUNCTION     0.51     0.74     7.87     0  02:08        0.74
  WS02006232           JUNCTION     0.65     0.87     7.90     0  02:10        0.86
  WS02006234           JUNCTION     0.57     0.79     7.95     0  02:10        0.79
  WS02006235           JUNCTION     0.60     0.82     7.98     0  02:10        0.81
  WS02006238           JUNCTION     0.62     0.84     7.99     0  02:10        0.84
  WS02006240           JUNCTION     0.52     0.77     8.06     0  02:51        0.75
  WS02006242           JUNCTION     0.57     0.84     8.10     0  02:51        0.82
  WS02006243           JUNCTION     0.44     0.72     8.14     0  02:51        0.71
  WS02006245           JUNCTION     0.42     0.68     8.17     0  02:51        0.68
  WS02006247           JUNCTION     0.44     0.69     8.19     0  02:51        0.69
  WS02006248           JUNCTION     0.38     0.62     8.21     0  02:54        0.62
  WS02006249           JUNCTION     0.41     0.63     8.23     0  02:54        0.63
  WS02006239           JUNCTION     0.58     0.82     8.03     0  02:51        0.81
  WS02006251           JUNCTION     0.40     0.66     8.33     0  02:52        0.66
  WS02006252           JUNCTION     0.34     0.59     8.84     0  02:54        0.59
  WS02006253           JUNCTION     0.42     0.69     8.33     0  02:53        0.69
  WS02006256           JUNCTION     1.09     2.35     9.28     0  00:00        1.21
  WS02004138           JUNCTION     0.14     0.19     7.44     0  07:42        0.19
  WS02004407           JUNCTION     0.23     0.31     6.63     0  02:11        0.31
  WS02006228           JUNCTION     0.79     1.08     7.74     0  02:10        1.07
  WS02006229           JUNCTION     0.77     1.08     7.78     0  02:10        1.08
  WS02006280           JUNCTION     0.07     0.16     8.44     0  02:09        0.16
  WS02006284           JUNCTION     0.37     0.51     8.91     0  02:09        0.51
  WS02006287           JUNCTION     0.11     0.24     9.20     0  02:09        0.24
  WSF200               JUNCTION     0.23     0.33     5.56     0  02:13        0.33
  HS02004901           JUNCTION     0.13     0.25    10.07     0  02:07        0.25
  HS02004881           JUNCTION     0.01     0.03     9.06     0  02:08        0.03
  HS02004876           JUNCTION     0.05     0.11     9.14     0  02:05        0.11
  HS02004870           JUNCTION     0.02     0.05     9.34     0  02:09        0.05
  HS02004862           JUNCTION     0.02     0.06     9.44     0  02:09        0.06
  HS02004856           JUNCTION     0.08     0.11     9.54     0  02:09        0.11
  HS02004852           JUNCTION     0.01     0.04     9.55     0  02:09        0.04
  HS02004848           JUNCTION     0.01     0.04     9.64     0  02:09        0.04
  HS02004842           JUNCTION     0.33     0.37     9.64     0  02:09        0.37
  HS02004837           JUNCTION     0.03     0.06     9.64     0  02:09        0.06
  HS02004830           JUNCTION     0.04     0.07     9.54     0  02:09        0.07
  HS02004824           JUNCTION     0.02     0.05     9.45     0  02:10        0.05
  HS02004817           JUNCTION     0.45     0.56     9.40     0  02:09        0.56
  HS02004807           JUNCTION     0.13     0.23     9.40     0  02:09        0.23
  HS02004802           JUNCTION     0.17     0.26     9.39     0  02:09        0.26
  HS02004799           JUNCTION     0.13     0.28     9.49     0  02:07        0.28
  HS02004792           JUNCTION     0.04     0.11     9.63     0  02:07        0.11
  HS02004788           JUNCTION     0.03     0.08     9.98     0  02:08        0.08
  HS02004785           JUNCTION     0.05     0.15    10.05     0  02:08        0.15
  HS02004777           JUNCTION     0.16     0.27    10.06     0  02:07        0.27
  HS02004770           JUNCTION     0.12     0.24    10.07     0  02:07        0.24
  HS02004480           JUNCTION     0.09     0.22     9.46     0  02:07        0.22
  HS02004479           JUNCTION     0.13     0.26     9.46     0  02:08        0.26
  HS02004478           JUNCTION     0.07     0.15     9.38     0  02:08        0.15
  YS02001745           JUNCTION     0.69     0.87     8.39     0  03:16        0.87
  YS02001748           JUNCTION     1.09     2.27     9.35     0  02:25        1.31
  YS02001751           JUNCTION     1.27     2.20     9.08     0  02:24        1.52
  YS02001754           JUNCTION     1.53     2.12     8.73     0  02:24        1.80
  YS02001762           JUNCTION     1.73     2.03     8.43     0  02:27        2.02
  YS02001765           JUNCTION     1.68     1.98     8.43     0  02:27        1.96
  YS02001767           JUNCTION     1.65     1.93     8.42     0  03:12        1.91
  YS02001770           JUNCTION     1.64     1.93     8.43     0  02:27        1.89
  YS02001774           JUNCTION     1.71     1.99     8.42     0  02:27        1.96
  YS02001779           JUNCTION     1.46     1.68     8.37     0  02:24        1.68
  YS02001882           JUNCTION     0.46     1.13     7.84     0  03:00        1.12
  YS02001884           JUNCTION     0.55     1.23     7.84     0  03:00        1.22
  YS02001759           JUNCTION     1.77     2.07     8.43     0  03:12        2.05
  YS02001887           JUNCTION     0.63     1.31     7.85     0  03:01        1.30
  YS02001890           JUNCTION     0.66     1.34     7.85     0  02:59        1.33
  YS02001898           JUNCTION     0.43     1.10     7.83     0  03:00        1.09
  YS02001901           JUNCTION     0.55     1.22     7.83     0  03:00        1.22
  YS02001904           JUNCTION     0.53     1.19     7.82     0  03:00        1.19
  YS02001907           JUNCTION     0.86     1.54     7.83     0  02:59        1.53
  YS02001910           JUNCTION     0.65     1.32     7.83     0  02:59        1.32
  YS02001915           JUNCTION     0.44     1.11     7.83     0  03:00        1.11
  YS02001918           JUNCTION     0.19     0.76     7.83     0  03:00        0.76
  YS02001619           JUNCTION     1.24     1.61     8.54     0  02:17        1.47
  YS02001629           JUNCTION     1.60     1.85     8.40     0  02:22        1.84
  YS02001641           JUNCTION     1.70     1.97     8.40     0  02:29        1.93
  YS02001644           JUNCTION     1.70     1.92     8.35     0  02:30        1.92
  YS02001652           JUNCTION     1.54     2.16     8.76     0  02:47        1.97
  YS02001655           JUNCTION     1.30     2.20     9.05     0  02:14        1.86
  YS02001920           JUNCTION     0.29     0.83     7.83     0  03:00        0.82
  YS02001923           JUNCTION     0.13     0.57     7.83     0  03:00        0.57
  YS02001926           JUNCTION     0.21     0.39     7.84     0  03:00        0.39
  YS02001929           JUNCTION     0.10     0.15     7.84     0  03:01        0.15
  YS02001658           JUNCTION     1.03     2.30     9.44     0  02:22        1.87
  YS02001661           JUNCTION     0.80     2.46     9.86     0  02:45        1.81
  YS02001664           JUNCTION     0.35     0.57     8.49     0  02:41        0.56
  YS02001622           JUNCTION     1.26     1.62     8.52     0  02:22        1.49
  YS02001633           JUNCTION     1.69     1.99     8.44     0  02:29        1.93
  YS02001649           JUNCTION     1.74     2.05     8.44     0  02:22        2.05
  YS02001757           JUNCTION     1.86     2.20     8.46     0  02:27        2.16
  YS02001895           JUNCTION     0.42     1.09     7.84     0  03:00        1.08
  YS02001625           JUNCTION     1.55     1.78     8.38     0  02:22        1.78
  YS02163301           JUNCTION     1.63     1.91     8.43     0  02:28        1.87
  YS02163601           JUNCTION     1.74     2.05     8.45     0  02:29        1.98
  YS02164001           JUNCTION     1.68     1.98     8.43     0  02:29        1.92
  YS02001647           JUNCTION     1.53     1.80     8.41     0  02:44        1.79
  YSB1154              JUNCTION     0.27     0.41     9.47     0  02:08        0.41
  YSB6556              JUNCTION     0.16     0.30     9.47     0  02:07        0.30
  YSB1174              JUNCTION     0.22     0.36     9.47     0  02:08        0.36
  YSB1171              JUNCTION     0.42     0.56     9.47     0  02:08        0.56
  YS02006553           JUNCTION     0.86     1.53     7.82     0  02:59        1.52
  YS02006561           JUNCTION     0.25     0.76     7.42     0  03:00        0.76
  YS02006556           JUNCTION     0.83     1.49     7.80     0  02:59        1.48
  YS02006558           JUNCTION     0.87     1.52     7.79     0  02:59        1.52
  YS02001783           JUNCTION     0.46     1.60     7.74     0  02:40        1.20
  YS02001784           JUNCTION     0.49     1.89     7.96     0  02:40        1.18
  YS02001786           JUNCTION     0.43     1.98     8.01     0  02:40        1.08
  YS02001788           JUNCTION     0.37     2.28     8.26     0  02:40        0.99
  YS02001790           JUNCTION     0.47     1.96     7.60     0  02:39        1.20
  YS02001791           JUNCTION     0.42     1.71     7.18     0  02:40        1.24
  YS02001793           JUNCTION     0.52     2.04     6.87     0  02:40        1.80
  WS02004139           JUNCTION     0.57     0.72     5.63     0  07:50        0.72
  WSC                  OUTFALL      0.30     0.38     1.05     0  02:35        0.38
  3                    OUTFALL      0.12     0.23     6.23     0  00:00        0.21
  4                    OUTFALL      0.02     0.13     7.13     0  02:54        0.13
  5                    OUTFALL      0.00     0.00     5.00     0  00:00        0.00
  JK-storage           STORAGE      2.03     5.80     6.60     0  02:40        5.80
  CC-storage           STORAGE      1.08     1.39     8.39     0  03:15        1.39
  XR-storage           STORAGE      7.49     7.72     5.72     0  01:54        7.72
  
  
  *******************
  Node Inflow Summary
  *******************
  
  -------------------------------------------------------------------------------------------------
                                  Maximum  Maximum                  Lateral       Total        Flow
                                  Lateral    Total  Time of Max      Inflow      Inflow     Balance
                                   Inflow   Inflow   Occurrence      Volume      Volume       Error
  Node                 Type           LPS      LPS  days hr:min    10^6 ltr    10^6 ltr     Percent
  -------------------------------------------------------------------------------------------------
  WS02001211           JUNCTION      7.35   386.85     0  07:50       0.207        5.93       0.723
  WS02001212           JUNCTION      0.00   385.87     0  07:50           0        5.88       0.431
  WS02001213           JUNCTION      0.00   385.03     0  07:50           0        5.86       0.420
  WS02003069           JUNCTION      0.32   872.17     0  02:33     0.00902        14.5       0.235
  WS02003072           JUNCTION      0.00   871.80     0  02:33           0        14.5       0.279
  WS02003073           JUNCTION      1.82   873.49     0  02:34      0.0514        14.5       0.318
  WS02003060           JUNCTION     16.53   872.06     0  02:32       0.466        14.5       0.222
  WS02003066           JUNCTION      0.00   598.49     0  02:13           0        8.26       0.054
  WS02003059           JUNCTION      0.00   383.77     0  07:50           0        5.84       0.731
  WS02003067           JUNCTION      0.00   598.41     0  02:12           0        8.27       0.113
  WS02004401           JUNCTION      0.00   601.04     0  02:12           0        8.51       0.257
  WS02004402           JUNCTION      0.00   600.49     0  02:13           0        8.48       0.243
  WS02004403           JUNCTION      0.00   600.16     0  02:12           0        8.46       0.220
  WS02004404           JUNCTION      0.16   599.72     0  02:11     0.00457        8.45       0.165
  WS02004406           JUNCTION      0.00   600.20     0  02:12           0        8.42       0.401
  WS02004409           JUNCTION      0.00   599.27     0  02:11           0        8.38       0.197
  WS02004410           JUNCTION      0.00   599.01     0  02:11           0        8.36       0.223
  WS02004411           JUNCTION      0.00   598.74     0  02:12           0        8.34       0.228
  WS02004412           JUNCTION      0.00   598.64     0  02:12           0        8.32       0.245
  WS02004413           JUNCTION      0.00   598.50     0  02:12           0         8.3       0.366
  WS02004405           JUNCTION      0.04   599.77     0  02:10     0.00107        8.44       0.249
  WS02006109           JUNCTION      1.23   588.58     0  02:10      0.0347        8.58       0.260
  WS02006110           JUNCTION      0.00   588.54     0  02:10           0        8.55       0.238
  WS02006111           JUNCTION      0.00   615.60     0  02:09           0        8.52       0.054
  WS02006112           JUNCTION     10.18   606.86     0  02:09      0.0577        8.58       0.334
  WS02006113           JUNCTION      0.00   590.02     0  02:10           0        8.53       0.117
  WS02006115           JUNCTION      0.00   615.48     0  02:11           0        8.55       0.246
  WS02006116           JUNCTION      0.00   602.38     0  02:10           0        8.53       0.237
  WS02006230           JUNCTION     10.28   399.65     0  04:12        0.29        6.83       0.203
  WS02006231           JUNCTION      0.00   390.71     0  04:12           0        6.55       0.171
  WS02006232           JUNCTION      0.00   390.67     0  04:12           0        6.57       0.254
  WS02006234           JUNCTION      0.00   392.58     0  04:11           0        6.58       0.127
  WS02006235           JUNCTION      0.00   392.55     0  04:11           0        6.62       0.171
  WS02006238           JUNCTION      0.00   307.01     0  06:12           0        4.31       0.186
  WS02006240           JUNCTION      0.00   311.83     0  06:11           0         4.3       0.285
  WS02006242           JUNCTION      0.00   317.85     0  01:44           0        4.31       0.348
  WS02006243           JUNCTION      0.00   332.21     0  01:44           0         4.3      -0.038
  WS02006245           JUNCTION      0.00   342.17     0  01:44           0        4.31       0.283
  WS02006247           JUNCTION      0.00   348.53     0  01:43           0        4.32       0.164
  WS02006248           JUNCTION      0.00   354.25     0  01:43           0        4.32       0.071
  WS02006249           JUNCTION      0.00   440.65     0  02:53           0        4.69       0.252
  WS02006239           JUNCTION      0.00   308.76     0  06:11           0         4.3       0.278
  WS02006251           JUNCTION      0.08   440.84     0  02:53     0.00217        4.72       0.183
  WS02006252           JUNCTION      0.00   400.00     0  02:50           0        4.37       0.010
  WS02006253           JUNCTION      1.44    57.92     0  02:08     0.00747       0.354       1.139
  WS02006256           JUNCTION      0.00   600.00     0  00:00           0        7.55       0.032
  WS02004138           JUNCTION      0.00   380.00     0  07:40           0        5.76       0.087
  WS02004407           JUNCTION      0.00   599.44     0  02:11           0        8.38       0.090
  WS02006228           JUNCTION      0.00   587.40     0  02:10           0        8.56       0.185
  WS02006229           JUNCTION      0.00   588.21     0  02:10           0        8.57       0.143
  WS02006280           JUNCTION      0.00   274.19     0  02:09           0        1.75       0.004
  WS02006284           JUNCTION      0.10   274.19     0  02:09      0.0027        1.75       0.059
  WS02006287           JUNCTION      0.00   274.08     0  02:09           0        1.75       0.041
  WSF200               JUNCTION      0.00   598.53     0  02:13           0        8.26       0.049
  HS02004901           JUNCTION     12.34    12.34     0  01:36      0.0695      0.0697       2.591
  HS02004881           JUNCTION      5.34    56.62     0  02:08      0.0303       0.326       0.076
  HS02004876           JUNCTION     10.11    51.23     0  02:08      0.0584       0.296       0.182
  HS02004870           JUNCTION     10.08    41.18     0  02:08      0.0575       0.238       0.045
  HS02004862           JUNCTION      9.99    31.21     0  02:08      0.0634        0.18       0.095
  HS02004856           JUNCTION      7.58    21.25     0  02:08      0.0432       0.118       1.232
  HS02004852           JUNCTION      0.00    13.78     0  02:09           0      0.0753       0.072
  HS02004848           JUNCTION     22.44    22.44     0  02:09       0.139       0.139       0.033
  HS02004842           JUNCTION      0.00     8.71     0  02:17           0      0.0763      20.532
  HS02004837           JUNCTION     23.78    32.32     0  02:08       0.279       0.343       0.238
  HS02004830           JUNCTION      0.15    32.46     0  02:09     0.00423       0.333       0.372
  HS02004824           JUNCTION     27.40    59.85     0  02:10       0.181       0.513       0.105
  HS02004817           JUNCTION      0.60    60.44     0  02:10      0.0169       0.529       3.252
  HS02004807           JUNCTION     18.56    78.63     0  02:09       0.106       0.618       0.705
  HS02004802           JUNCTION      0.00    78.69     0  02:10           0       0.615       0.648
  HS02004799           JUNCTION     14.98   164.66     0  02:07      0.0856       0.976       0.270
  HS02004792           JUNCTION     62.86   149.73     0  02:07       0.364       0.891       0.045
  HS02004788           JUNCTION     22.43    86.95     0  02:07       0.166       0.528       0.073
  HS02004785           JUNCTION      0.15    64.59     0  02:07     0.00423       0.363       0.135
  HS02004777           JUNCTION      0.03    64.48     0  02:07    0.000846       0.364       1.448
  HS02004770           JUNCTION     52.29    64.50     0  02:06       0.297       0.365       0.854
  HS02004480           JUNCTION      0.00   195.78     0  02:07           0        1.15       0.099
  HS02004479           JUNCTION      0.00    31.20     0  02:09           0       0.188       0.391
  HS02004478           JUNCTION      0.00   274.07     0  02:08           0        1.75       0.020
  YS02001745           JUNCTION    214.32   442.39     0  02:25        2.14        2.17       0.516
  YS02001748           JUNCTION      0.04   597.53     0  02:25     0.00127        2.16       1.058
  YS02001751           JUNCTION      0.01   385.06     0  02:14     0.00031        2.11       1.106
  YS02001754           JUNCTION      0.26   243.51     0  02:25     0.00733         2.1       1.179
  YS02001762           JUNCTION      0.00   257.71     0  02:43           0        1.81       1.167
  YS02001765           JUNCTION      0.00   257.27     0  02:43           0        1.82       1.353
  YS02001767           JUNCTION      0.54   256.95     0  02:43      0.0151        1.84       1.981
  YS02001770           JUNCTION    259.81   271.29     0  03:19        2.41        2.51       1.277
  YS02001774           JUNCTION      0.00   271.53     0  03:19           0       0.749       3.442
  YS02001779           JUNCTION      0.01   272.00     0  03:19    0.000141       0.718       2.153
  YS02001882           JUNCTION      0.00    26.76     0  02:42           0      0.0162      14.788
  YS02001884           JUNCTION      0.00    53.02     0  02:42           0      0.0532      12.130
  YS02001759           JUNCTION    246.73   501.35     0  02:43        2.23        3.92       0.583
  YS02001887           JUNCTION    301.84   318.87     0  02:45        2.57         2.6       0.313
  YS02001890           JUNCTION      0.00   324.27     0  02:42           0        2.56       0.346
  YS02001898           JUNCTION      0.00   321.65     0  02:43           0        2.54       0.110
  YS02001901           JUNCTION      0.00   303.44     0  02:43           0        2.54       0.261
  YS02001904           JUNCTION      0.00   302.95     0  02:53           0        2.54       0.233
  YS02001907           JUNCTION      0.00   579.05     0  03:03           0        5.63       0.414
  YS02001910           JUNCTION      0.00   314.49     0  03:05           0         3.1       0.367
  YS02001915           JUNCTION    186.98   313.55     0  03:05         1.8         3.1       0.184
  YS02001918           JUNCTION      0.00   135.50     0  03:06           0         1.3       0.135
  YS02001619           JUNCTION    183.42   183.42     0  02:55        1.79        1.79       0.662
  YS02001629           JUNCTION      0.00   187.90     0  02:08           0        1.66       1.698
  YS02001641           JUNCTION      0.00   377.73     0  02:23           0        3.69       0.569
  YS02001644           JUNCTION    204.56   939.62     0  03:16        2.06        7.45       0.352
  YS02001652           JUNCTION      0.00   281.19     0  02:22           0        1.86       1.231
  YS02001655           JUNCTION      0.15   392.89     0  02:10     0.00434        1.89       1.334
  YS02001920           JUNCTION      2.87   126.76     0  03:06      0.0809        1.31       0.214
  YS02001923           JUNCTION      0.04   106.87     0  03:04     0.00106        1.23       0.042
  YS02001926           JUNCTION      0.05   100.44     0  03:01     0.00147        1.23       0.262
  YS02001929           JUNCTION    100.40   100.40     0  03:01        1.23        1.23       0.039
  YS02001658           JUNCTION      0.00   606.87     0  02:22           0        1.92       1.137
  YS02001661           JUNCTION      0.00   618.60     0  02:42           0        2.65       0.049
  YS02001664           JUNCTION    219.77   375.59     0  02:41        1.91        2.64       0.255
  YS02001622           JUNCTION      0.00   183.70     0  02:54           0        1.78       1.794
  YS02001633           JUNCTION    208.70   378.08     0  02:23        2.13        3.75       0.858
  YS02001649           JUNCTION      0.00   786.05     0  02:38           0        5.06       0.730
  YS02001757           JUNCTION      0.00  1457.18     0  02:38           0        9.19       1.013
  YS02001895           JUNCTION      0.00   325.68     0  02:42           0        2.55       0.188
  YS02001625           JUNCTION      0.00   187.59     0  02:08           0        1.74       2.275
  YS02163301           JUNCTION      0.00   206.66     0  02:19           0        1.65       1.457
  YS02163601           JUNCTION      0.11   377.94     0  02:23      0.0031        3.71       0.813
  YS02164001           JUNCTION      0.00   377.97     0  02:23           0        3.69       0.535
  YS02001647           JUNCTION      0.00   567.46     0  02:39           0        3.98       0.710
  YSB1154              JUNCTION     18.00    18.00     0  02:07       0.104       0.105       1.400
  YSB6556              JUNCTION      0.00    17.99     0  02:06           0       0.105       1.199
  YSB1174              JUNCTION     13.79    13.79     0  01:35      0.0753      0.0758       1.722
  YSB1171              JUNCTION      0.00    31.24     0  02:07           0       0.187       3.509
  YS02006553           JUNCTION      0.00   579.08     0  03:04           0        5.62       0.273
  YS02006561           JUNCTION      0.00   830.09     0  02:59           0        7.92       0.009
  YS02006556           JUNCTION      0.00   579.06     0  03:03           0        5.62       0.197
  YS02006558           JUNCTION    265.84   830.59     0  02:59        2.36        7.95       0.065
  YS02001783           JUNCTION      0.00   832.87     0  02:40           0        7.92       0.027
  YS02001784           JUNCTION      1.06   830.84     0  03:00      0.0299        7.95       0.042
  YS02001786           JUNCTION      0.06   830.87     0  03:01     0.00159        7.95       0.041
  YS02001788           JUNCTION      0.07   830.90     0  03:00       0.002        7.94       0.023
  YS02001790           JUNCTION      0.15   831.05     0  03:00     0.00437        7.95       0.030
  YS02001791           JUNCTION      0.00   846.47     0  02:38           0        7.94       0.013
  YS02001793           JUNCTION      0.00   831.20     0  03:00           0        7.94       0.002
  WS02004139           JUNCTION      0.32   380.32     0  07:42     0.00905        5.76       0.753
  WSC                  OUTFALL       0.00   873.24     0  02:35           0        14.4       0.000
  3                    OUTFALL       0.00   597.65     0  00:00           0        5.21       0.000
  4                    OUTFALL       0.00   159.47     0  02:54           0       0.351       0.000
  5                    OUTFALL       0.00     0.00     0  00:00           0           0       0.000 ltr
  JK-storage           STORAGE       0.00   831.18     0  03:00           0        8.09     -10.948
  CC-storage           STORAGE       0.00  1456.95     0  02:38           0         8.1       0.359
  XR-storage           STORAGE     549.18   549.18     0  02:55        9.26        9.86      -0.002
  
  
  **********************
  Node Surcharge Summary
  **********************
  
  Surcharging occurs when water rises above the top of the highest conduit.
  ---------------------------------------------------------------------
                                               Max. Height   Min. Depth
                                   Hours       Above Crown    Below Rim
  Node                 Type      Surcharged         Meters       Meters
  ---------------------------------------------------------------------
  WS02004404           JUNCTION        0.32          0.006        2.774
  WS02006109           JUNCTION        2.22          0.203        1.617
  WS02006110           JUNCTION        1.09          0.049        1.801
  WS02006112           JUNCTION        1.27          0.191        1.489
  WS02006231           JUNCTION        0.70          0.033        1.497
  WS02006232           JUNCTION        2.24          0.165        1.315
  WS02006234           JUNCTION        1.07          0.074        1.166
  WS02006235           JUNCTION        1.61          0.107        1.183
  WS02006238           JUNCTION        1.88          0.122        1.308
  WS02006240           JUNCTION        0.94          0.056        1.334
  WS02006242           JUNCTION        1.48          0.106        0.714
  WS02006243           JUNCTION        0.01          0.010        0.760
  WS02006239           JUNCTION        1.10          0.078        1.212
  WS02006252           JUNCTION        1.46          0.193        0.907
  WS02006256           JUNCTION        0.01          1.050        0.000
  WS02006228           JUNCTION        2.13          0.254        1.946
  YS02001748           JUNCTION        5.25          1.190        0.000
  YS02001751           JUNCTION        5.48          1.200        0.000
  YS02001754           JUNCTION        5.73          1.075        0.075
  YS02001762           JUNCTION        5.95          1.034        0.116
  YS02001765           JUNCTION        5.94          0.985        0.115
  YS02001767           JUNCTION        5.92          0.929        0.101
  YS02001770           JUNCTION        5.86          0.905        0.015
  YS02001774           JUNCTION        5.95          0.995        0.055
  YS02001779           JUNCTION        5.71          0.680        0.000
  YS02001882           JUNCTION        0.30          0.129        0.701
  YS02001884           JUNCTION        0.37          0.168        0.702
  YS02001759           JUNCTION        5.98          1.066        0.144
  YS02001887           JUNCTION        0.50          0.257        0.693
  YS02001890           JUNCTION        0.55          0.294        0.466
  YS02001898           JUNCTION        0.20          0.065        0.675
  YS02001901           JUNCTION        0.45          0.218        0.652
  YS02001904           JUNCTION        0.41          0.192        0.658
  YS02001907           JUNCTION        1.43          0.529        0.421
  YS02001910           JUNCTION        0.61          0.325        0.775
  YS02001915           JUNCTION        0.27          0.110        0.890
  YS02001619           JUNCTION        5.50          0.610        0.000
  YS02001629           JUNCTION        5.52          0.470        0.000
  YS02001641           JUNCTION        5.94          0.966        0.134
  YS02001644           JUNCTION        5.95          0.920        0.000
  YS02001652           JUNCTION        5.74          1.130        0.000
  YS02001655           JUNCTION        5.53          1.200        0.000
  YS02001658           JUNCTION        5.29          1.300        0.000
  YS02001661           JUNCTION        0.21          1.390        0.000
  YS02001622           JUNCTION        5.57          0.620        0.000
  YS02001633           JUNCTION        5.93          0.968        0.092
  YS02001649           JUNCTION        5.96          1.050        0.000
  YS02001757           JUNCTION        6.04          1.201        0.009
  YS02001895           JUNCTION        0.24          0.088        0.662
  YS02001625           JUNCTION        5.76          0.780        0.000
  YS02163301           JUNCTION        5.91          0.910        0.120
  YS02163601           JUNCTION        5.96          1.048        0.032
  YS02164001           JUNCTION        5.94          0.977        0.123
  YS02001647           JUNCTION        5.75          0.805        0.095
  YS02006553           JUNCTION        1.48          0.532        0.658
  YS02006556           JUNCTION        1.01          0.445        0.905
  YS02006558           JUNCTION        0.95          0.425        0.975
  YS02001783           JUNCTION        0.82          0.801        0.799
  YS02001784           JUNCTION        0.90          1.092        0.398
  YS02001786           JUNCTION        0.82          1.180        0.250
  YS02001788           JUNCTION        0.81          1.480        0.000
  YS02001790           JUNCTION        1.51          1.157        0.000
  YS02001791           JUNCTION        1.53          0.909        1.011
  YS02001793           JUNCTION        1.60          1.036        1.564
  
  
  *********************
  Node Flooding Summary
  *********************
  
  Flooding refers to all water that overflows a node, whether it ponds or not.
  --------------------------------------------------------------------------
                                                             Total   Maximum
                                 Maximum   Time of Max       Flood    Ponded
                        Hours       Rate    Occurrence      Volume     Depth
  Node                 Flooded       LPS   days hr:min    10^6 ltr    Meters
  --------------------------------------------------------------------------
  WS02006256              0.01    406.11      0  00:00       0.001     0.000
  YS02001748              0.01    170.43      0  02:27       0.000     0.000
  YS02001751              0.01    119.80      0  02:24       0.000     0.000
  YS02001779              2.25    271.88      0  03:19       0.697     0.000
  YS02001619              0.01     41.88      0  02:23       0.000     0.000
  YS02001629              0.01     37.45      0  02:24       0.001     0.000
  YS02001644              4.21    939.35      0  03:16       5.161     0.000
  YS02001652              0.01      9.40      0  03:03       0.000     0.000
  YS02001655              0.01    139.81      0  02:14       0.000     0.000
  YS02001658              0.01    159.04      0  02:22       0.000     0.000
  YS02001661              0.01    144.15      0  02:47       0.000     0.000
  YS02001622              0.01     43.66      0  02:22       0.000     0.000
  YS02001649              0.07     43.74      0  02:45       0.004     0.000
  YS02001625              0.61     37.70      0  02:27       0.046     0.000
  YS02001788              0.01     79.08      0  02:40       0.000     0.000
  YS02001790              0.01    111.07      0  02:39       0.000     0.000
  JK-storage              1.23    531.15      0  03:00       1.546     0.000
  XR-storage              4.85    339.41      0  02:40       3.316     0.000
  
  
  **********************
  Storage Volume Summary
  **********************
  
  --------------------------------------------------------------------------------------------------
                         Average     Avg  Evap Exfil       Maximum     Max    Time of Max    Maximum
                          Volume    Pcnt  Pcnt  Pcnt        Volume    Pcnt     Occurrence    Outflow
  Storage Unit           1000 m3    Full  Loss  Loss       1000 m3    Full    days hr:min        LPS
  --------------------------------------------------------------------------------------------------
  JK-storage               0.102      35     0     0         0.291     100       0  02:40     600.00
  CC-storage               3.006      19     0     0         3.864      25       0  03:15     400.00
  XR-storage               0.899      97     0     0         0.926     100       0  01:54     380.00
  
  
  ***********************
  Outfall Loading Summary
  ***********************
  
  -----------------------------------------------------------
                         Flow       Avg       Max       Total
                         Freq      Flow      Flow      Volume
  Outfall Node           Pcnt       LPS       LPS    10^6 ltr
  -----------------------------------------------------------
  WSC                   99.99    575.91    873.24      14.418
  3                     92.86    256.36    597.65       5.208
  4                     35.68     44.21    159.47       0.351
  5                      0.00      0.00      0.00       0.000
  -----------------------------------------------------------
  System                57.14    876.48   1371.28      19.976
  
  
  ********************
  Link Flow Summary
  ********************
  
  -----------------------------------------------------------------------------
                                 Maximum  Time of Max   Maximum    Max/    Max/
                                  |Flow|   Occurrence   |Veloc|    Full    Full
  Link                 Type          LPS  days hr:min     m/sec    Flow   Depth
  -----------------------------------------------------------------------------
  WS02003066WSF200     CONDUIT    598.53     0  02:13      2.85    0.10    0.24
  WS02006287WS02006284 CONDUIT    274.09     0  02:09      1.78    0.13    0.25
  WS02006284WS02006280 CONDUIT    274.19     0  02:09      2.02    0.11    0.23
  WS02006280WS02006229 CONDUIT    274.19     0  02:09      3.26    0.06    0.16
  WS02006229WS02006228 CONDUIT    587.40     0  02:10      1.17    1.95    1.00
  WS02006256WS02006235 CONDUIT    177.52     0  00:01      2.73    1.88    1.00
  WS02006253WS02006251 CONDUIT     63.69     0  01:50      0.52    0.19    0.96
  WS02006252WS02006251 CONDUIT    400.33     0  04:34      3.19    1.47    1.00
  WS02006251WS02006249 CONDUIT    440.65     0  02:53      1.22    1.27    0.92
  WS02006249WS02006248 CONDUIT    354.25     0  01:43      1.24    1.94    0.88
  WS02006248WS02006247 CONDUIT    348.53     0  01:43      1.20    0.76    0.92
  WS02006247WS02006245 CONDUIT    342.17     0  01:44      1.17    2.71    0.97
  WS02006245WS02006243 CONDUIT    332.21     0  01:44      1.21    0.98    0.99
  WS02006243WS02006242 CONDUIT    317.85     0  01:44      1.03    0.68    1.00
  WS02006242WS02006240 CONDUIT    311.83     0  06:11      0.88    1.24    1.00
  WS02006240WS02006239 CONDUIT    308.76     0  06:11      0.85    0.97    1.00
  WS02006239WS02006238 CONDUIT    307.01     0  06:12      0.80    0.98    1.00
  WS02006238WS02006235 CONDUIT    307.13     0  06:12      1.32    0.69    1.00
  WS02006235WS02006234 CONDUIT    392.58     0  04:11      1.02    4.14    1.00
  WS02006234WS02006232 CONDUIT    390.67     0  04:12      1.17    0.79    1.00
  WS02006232WS02006231 CONDUIT    390.71     0  04:12      1.06    0.82    1.00
  WS02006231WS02006230 CONDUIT    389.37     0  04:12      1.32    5.91    1.00
  WS02006230WS02006229 CONDUIT    399.50     0  04:13      1.04    8.89    1.00
  WS02006228WS02006109 CONDUIT    587.35     0  02:10      1.17    2.57    1.00
  WS02006116WS02004401 CONDUIT    601.04     0  02:12      0.81    0.83    0.89
  WS02006115WS02006116 CONDUIT    602.38     0  02:10      0.93    0.77    0.82
  WS02006113WS02006111 CONDUIT    615.60     0  02:09      2.54    0.74    0.49
  WS02006112WS02006115 CONDUIT    615.48     0  02:11      0.83    0.36    0.90
  WS02006111WS02006112 CONDUIT    596.87     0  02:09      1.63    0.28    0.68
  WS02006110WS02006113 CONDUIT    590.02     0  02:10      1.37    0.54    0.80
  WS02006109WS02006110 CONDUIT    588.54     0  02:10      1.17    1.13    1.00
  WS02004411WS02004412 CONDUIT    598.64     0  02:12      0.98    0.85    0.73
  WS02004401WS02004402 CONDUIT    600.49     0  02:13      0.80    0.72    0.91
  WS02004413WS02003067 CONDUIT    598.41     0  02:12      1.18    0.26    0.62
  WS02004412WS02004413 CONDUIT    598.50     0  02:12      0.88    0.40    0.81
  WS02004410WS02004411 CONDUIT    598.74     0  02:12      0.98    0.82    0.72
  WS02004409WS02004410 CONDUIT    599.01     0  02:11      1.01    0.77    0.72
  WS02004407WS02004409 CONDUIT    599.27     0  02:11      1.54    0.21    0.51
  WS02004406WS02004407 CONDUIT    599.44     0  02:11      1.11    0.27    0.65
  WS02004405WS02004406 CONDUIT    600.20     0  02:12      0.77    1.18    0.99
  WS02004404WS02004405 CONDUIT    599.73     0  02:10      0.76    5.88    1.00
  WS02004403WS02004404 CONDUIT    599.56     0  02:11      0.77    0.43    0.97
  WS02004402WS02004403 CONDUIT    600.16     0  02:12      0.79    0.86    0.93
  WS02004139WS02001211 CONDUIT    379.50     0  07:50      0.69    0.48    0.58
  WS02004138WS02004139 CONDUIT    380.00     0  07:42      2.94    0.08    0.43
  WS02003067WS02003066 CONDUIT    598.49     0  02:13      1.28    0.19    0.43
  WS02001213WS02003059 CONDUIT    383.77     0  07:50      0.64    0.63    0.73
  WS02001212WS02001213 CONDUIT    385.03     0  07:50      1.26    0.59    0.43
  WS02001211WS02001212 CONDUIT    385.87     0  07:50      0.76    0.30    0.62
  WS02003072WS02003073 CONDUIT    871.67     0  02:34      1.68    1.88    0.47
  WS02003069WS02003072 CONDUIT    871.80     0  02:33      1.58    0.42    0.49
  WS02003060WS02003069 CONDUIT    871.85     0  02:33      1.83    0.34    0.44
  WS02003059WS02003060 CONDUIT    382.11     0  07:50      0.82    0.25    0.63
  HS02004901HS02004770 CONDUIT     12.22     0  02:07      0.05    0.05    0.35
  HS02004876HS02004881 CONDUIT     51.32     0  02:08      0.76    0.55    0.10
  HS02004870HS02004876 CONDUIT     41.17     0  02:09      0.52    0.03    0.11
  HS02004842HS02004848 CONDUIT      8.71     0  02:17      0.04    0.01    0.29
  HS02004837HS02004842 CONDUIT      8.85     0  02:14      0.41    0.01    0.30
  HS02004830HS02004837 CONDUIT     32.31     0  02:09      0.50    0.03    0.09
  HS02004824HS02004830 CONDUIT     32.45     0  02:09      0.53    0.04    0.09
  HS02004817HS02004824 CONDUIT     59.84     0  02:10      0.20    0.03    0.43
  HS02004770HS02004777 CONDUIT     64.45     0  02:07      0.26    0.12    0.36
  HS02004799HS02004480 CONDUIT    164.63     0  02:07      0.67    0.21    0.35
  HS02004792HS02004799 CONDUIT    149.69     0  02:07      0.76    0.09    0.28
  HS02004788HS02004792 CONDUIT     86.94     0  02:08      0.90    0.06    0.14
  HS02004785HS02004788 CONDUIT     64.57     0  02:08      0.57    0.49    0.16
  HS02004777HS02004785 CONDUIT     64.44     0  02:07      0.31    0.08    0.29
  HS02004480HS02004478 CONDUIT    195.75     0  02:08      1.06    0.82    0.26
  HS02004479HS02004480 CONDUIT     31.31     0  02:10      0.28    0.03    0.34
  HS02004862HS02004870 CONDUIT     31.19     0  02:09      0.56    0.03    0.08
  HS02004848HS02004852 CONDUIT     13.78     0  02:09      0.38    0.02    0.05
  HS02004856HS02004862 CONDUIT     21.24     0  02:09      0.41    0.02    0.07
  HS02004852HS02004856 CONDUIT     13.76     0  02:09      0.18    0.02    0.11
  HS02004802HS02004478 CONDUIT     78.88     0  02:11      0.38    0.07    0.29
  HS02004478WS02006287 CONDUIT    274.08     0  02:09      1.48    0.08    0.21
  HS02004817HS02004807 CONDUIT     60.62     0  02:11      0.15    0.04    0.56
  HS02004807HS02004802 CONDUIT     78.69     0  02:10      0.32    0.15    0.35
  YS02001759YS02001757 CONDUIT    501.30     0  02:43      0.64    0.36    1.00
  YS02001762YS02001759 CONDUIT    258.75     0  02:32      0.33    0.30    1.00
  YS02001765YS02001762 CONDUIT    257.71     0  02:43      0.33    0.24    1.00
  YS02001770YS02001767 CONDUIT    256.41     0  02:43      0.38    1.02    1.00
  YS02001774YS02001770 CONDUIT    271.53     0  03:19      0.35    0.17    1.00
  YS02001779YS02001774 CONDUIT    272.00     0  03:19      0.35    0.14    1.00
  YS02001649YS02001757 CONDUIT    786.23     0  02:38      1.00    0.48    1.00
  YS02001767YS02001765 CONDUIT    257.27     0  02:43      0.35    0.32    1.00
  YS02006561YS02001783 CONDUIT    832.87     0  02:40      2.13    0.43    0.98
  YS02001783YS02001784 CONDUIT    829.78     0  03:00      1.69    1.14    1.00
  YS02001784YS02001785 CONDUIT    830.81     0  03:01      1.82    1.93    1.00
  YS02001788YS02001790 CONDUIT    830.89     0  03:00      2.37    0.61    1.00
  YS02001790YS02001791 CONDUIT    846.47     0  02:38      2.93    0.92    1.00
  YS02001791YS02001793 CONDUIT    831.20     0  03:00      5.86    0.36    1.00
  YS02001910YS02001907 CONDUIT    314.46     0  03:05      0.49    0.18    1.00
  YS02001786YS02001788 CONDUIT    830.82     0  03:00      2.27    1.60    1.00
  YS02001915YS02001910 CONDUIT    314.49     0  03:05      0.56    0.16    1.00
  YS02001918YS02001915 CONDUIT    143.25     0  03:09      0.44    0.08    0.88
  YS02001923YS02001920 CONDUIT    123.89     0  03:06      0.66    0.06    0.70
  YS02001926YS02001923 CONDUIT    106.84     0  03:04      0.76    0.15    0.38
  YS02001929YS02001926 CONDUIT    100.38     0  03:01      0.82    0.05    0.27
  YS02001920YS02001918 CONDUIT    135.50     0  03:06      0.65    0.13    0.79
  YS02001629YS02163301 CONDUIT    206.66     0  02:19      0.26    0.25    1.00
  YS02001619YS02001622 CONDUIT    183.70     0  02:54      0.67    0.27    1.00
  YS02001622YS02001625 CONDUIT    187.59     0  02:08      0.32    0.10    1.00
  YS02001625YS02001629 CONDUIT    187.90     0  02:08      0.27    0.09    1.00
  YS02163301YS02001633 CONDUIT    206.44     0  02:19      0.26    0.19    1.00
  YS02163601YS02164001 CONDUIT    377.97     0  02:23      0.48    0.33    1.00
  YS02164001YS02001641 CONDUIT    377.73     0  02:23      0.48    0.52    1.00
  YS02001641YS02001644 CONDUIT    377.88     0  02:23      0.48    1.22    1.00
  YS02001647YS02001649 CONDUIT    567.85     0  02:39      0.72    0.30    1.00
  YS02006553YS02006556 CONDUIT    579.06     0  03:03      0.74    0.50    1.00
  YS02006556YS02006558 CONDUIT    579.33     0  03:04      0.74    0.46    1.00
  YSB6556YSB1171       CONDUIT     18.03     0  02:09      0.07    0.02    0.61
  YS02001907YS02006553 CONDUIT    579.08     0  03:04      0.64    0.68    1.00
  YS02006558YS02006561 CONDUIT    830.09     0  02:59      3.29    1.83    1.00
  YS02001633YS02163601 CONDUIT    377.83     0  02:23      0.48    0.40    1.00
  YS02001644YS02001647 CONDUIT    567.46     0  02:39      0.72    0.33    1.00
  YS02001745YS02001748 CONDUIT    597.49     0  02:25      1.53    0.23    0.94
  YS02001748YS02001751 CONDUIT    385.05     0  02:14      1.14    0.19    1.00
  YS02001751YS02001754 CONDUIT    243.25     0  02:25      0.97    0.12    1.00
  YS02001754YS02001757 CONDUIT    243.39     0  02:25      0.33    0.10    1.00
  YS02001882YS02001884 CONDUIT     26.76     0  02:42      0.12    0.03    1.00
  YS02001884YS02001887 CONDUIT     53.02     0  02:42      0.09    0.07    1.00
  YS02001890YS02001895 CONDUIT    325.68     0  02:42      0.45    0.15    1.00
  YS02001895YS02001898 CONDUIT    321.65     0  02:43      0.57    0.56    1.00
  YS02001898YS02001901 CONDUIT    303.44     0  02:43      0.49    0.20    1.00
  YS02001901YS02001904 CONDUIT    302.95     0  02:53      0.45    0.47    1.00
  YS02001904YS02001907 CONDUIT    302.31     0  02:55      0.39    0.11    1.00
  YS02001887YS02001890 CONDUIT    324.27     0  02:42      0.41    0.55    1.00
  YS02001652YS02001649 CONDUIT    281.39     0  02:22      0.58    0.14    1.00
  YS02001655YS02001652 CONDUIT    281.19     0  02:22      1.05    0.14    1.00
  YS02001658YS02001655 CONDUIT    392.73     0  02:10      1.31    0.17    1.00
  YS02001661YS02001658 CONDUIT    606.87     0  02:22      1.61    0.24    1.00
  YS02001664YS02001661 CONDUIT    618.60     0  02:42      1.57    0.19    0.71
  YSB1154YSB6556       CONDUIT     17.99     0  02:06      0.16    0.03    0.50
  YSB1174YSB1171       CONDUIT     13.76     0  01:36      0.06    0.02    0.62
  YSB1171HS02004479    CONDUIT     31.20     0  02:09      0.54    0.02    0.48
  HS02004881HS02006253 CONDUIT     56.61     0  02:08      1.78    0.01    0.27
  YS02001793JiankangQianchi CONDUIT    831.18     0  03:00     16.39    0.07    1.00
  YS02001757CaochengTiaoxuchi CONDUIT   1456.95     0  02:38      2.39    0.64    1.00
  WSF200WS02003060     CONDUIT    598.70     0  02:13      1.95    0.13    0.34
  1                    CONDUIT    873.24     0  02:35      3.21    0.30    0.38
  2                    CONDUIT    159.47     0  02:54      5.51    0.38    0.43
  3                    CONDUIT    597.65     0  00:00     10.05    0.95    0.86
  4                    CONDUIT      0.00     0  00:00      0.00    0.00    0.00
  CC-Pump-1            PUMP       200.00     0  02:10              1.00
  CC-Pump-2            PUMP       200.00     0  01:42              1.00
  JK-Pump-1            PUMP       300.00     0  00:00              1.00
  JK-Pump-2            PUMP       300.00     0  00:00              1.00
  XR-Pump-1            PUMP        95.00     0  01:00              1.00
  XR-Pump-2            PUMP        95.00     0  00:00              1.00
  XR-Pump-3            PUMP        95.00     0  00:00              1.00
  XR-Pump-4            PUMP        95.00     0  00:20              1.00
  
  
  ***************************
  Flow Classification Summary
  ***************************
  
  -------------------------------------------------------------------------------------
                      Adjusted    ---------- Fraction of Time in Flow Class ---------- 
                       /Actual         Up    Down  Sub   Sup   Up    Down  Norm  Inlet 
  Conduit               Length    Dry  Dry   Dry   Crit  Crit  Crit  Crit  Ltd   Ctrl  
  -------------------------------------------------------------------------------------
  WS02003066WSF200        1.00   0.07  0.00  0.00  0.00  0.93  0.00  0.00  0.60  0.00
  WS02006287WS02006284    1.00   0.03  0.01  0.00  0.58  0.38  0.00  0.00  0.68  0.00
  WS02006284WS02006280    1.00   0.03  0.00  0.00  0.00  0.00  0.00  0.97  0.00  0.00
  WS02006280WS02006229    1.00   0.03  0.00  0.00  0.00  0.00  0.00  0.97  0.00  0.00
  WS02006229WS02006228    1.00   0.00  0.00  0.00  0.99  0.00  0.00  0.01  0.00  0.00
  WS02006256WS02006235    1.00   0.00  0.00  0.00  1.00  0.00  0.00  0.00  0.00  0.00
  WS02006253WS02006251    1.00   0.02  0.01  0.00  0.97  0.00  0.00  0.00  0.00  0.00
  WS02006252WS02006251    1.00   0.05  0.00  0.00  0.00  0.00  0.94  0.00  0.00  0.00
  WS02006251WS02006249    1.00   0.00  0.00  0.00  1.00  0.00  0.00  0.00  0.23  0.00
  WS02006249WS02006248    1.00   0.00  0.01  0.00  0.90  0.00  0.09  0.00  0.00  0.00
  WS02006248WS02006247    1.00   0.02  0.00  0.00  0.98  0.00  0.00  0.01  0.12  0.00
  WS02006247WS02006245    1.00   0.02  0.00  0.00  0.97  0.00  0.00  0.02  0.00  0.00
  WS02006245WS02006243    1.00   0.01  0.00  0.00  0.96  0.00  0.00  0.03  0.01  0.00
  WS02006243WS02006242    1.00   0.01  0.00  0.00  0.99  0.00  0.00  0.00  0.17  0.00
  WS02006242WS02006240    1.00   0.00  0.00  0.00  0.99  0.00  0.00  0.00  0.00  0.00
  WS02006240WS02006239    1.00   0.00  0.00  0.00  0.97  0.00  0.00  0.03  0.02  0.00
  WS02006239WS02006238    1.00   0.00  0.00  0.00  1.00  0.00  0.00  0.00  0.01  0.00
  WS02006238WS02006235    1.00   0.00  0.00  0.00  1.00  0.00  0.00  0.00  0.00  0.00
  WS02006235WS02006234    1.00   0.00  0.00  0.00  0.97  0.00  0.03  0.00  0.00  0.00
  WS02006234WS02006232    1.00   0.00  0.00  0.00  1.00  0.00  0.00  0.00  0.03  0.00
  WS02006232WS02006231    1.00   0.00  0.00  0.00  0.99  0.00  0.01  0.00  0.00  0.00
  WS02006231WS02006230    1.00   0.00  0.00  0.00  0.56  0.00  0.44  0.00  0.00  0.00
  WS02006230WS02006229    1.00   0.00  0.00  0.00  0.99  0.00  0.00  0.01  0.01  0.00
  WS02006228WS02006109    1.00   0.00  0.00  0.00  1.00  0.00  0.00  0.00  0.00  0.00
  WS02006116WS02004401    1.00   0.02  0.00  0.00  0.98  0.00  0.00  0.00  0.00  0.00
  WS02006115WS02006116    1.00   0.02  0.00  0.00  0.97  0.00  0.00  0.01  0.01  0.00
  WS02006113WS02006111    1.00   0.02  0.00  0.00  0.00  0.98  0.00  0.00  0.11  0.00
  WS02006112WS02006115    1.00   0.02  0.00  0.00  0.98  0.00  0.00  0.00  0.00  0.00
  WS02006111WS02006112    1.00   0.02  0.00  0.00  0.98  0.00  0.00  0.00  0.97  0.00
  WS02006110WS02006113    1.00   0.01  0.00  0.00  0.98  0.00  0.00  0.00  0.00  0.00
  WS02006109WS02006110    1.00   0.00  0.01  0.00  0.98  0.00  0.00  0.00  0.00  0.00
  WS02004411WS02004412    1.00   0.04  0.00  0.00  0.96  0.00  0.00  0.00  0.00  0.00
  WS02004401WS02004402    1.00   0.02  0.00  0.00  0.98  0.00  0.00  0.00  0.00  0.00
  WS02004413WS02003067    1.00   0.05  0.01  0.00  0.00  0.00  0.94  0.00  0.00  0.00
  WS02004412WS02004413    1.00   0.04  0.00  0.00  0.95  0.00  0.00  0.00  0.00  0.00
  WS02004410WS02004411    1.00   0.04  0.00  0.00  0.96  0.00  0.00  0.00  0.00  0.00
  WS02004409WS02004410    1.00   0.04  0.00  0.00  0.96  0.00  0.00  0.00  0.00  0.00
  WS02004407WS02004409    1.00   0.04  0.00  0.00  0.95  0.00  0.00  0.00  0.81  0.00
  WS02004406WS02004407    1.00   0.00  0.04  0.00  0.96  0.00  0.00  0.00  0.00  0.00
  WS02004405WS02004406    1.00   0.00  0.00  0.00  1.00  0.00  0.00  0.00  0.02  0.00
  WS02004404WS02004405    1.00   0.00  0.00  0.00  1.00  0.00  0.00  0.00  0.00  0.00
  WS02004403WS02004404    1.00   0.00  0.02  0.00  0.98  0.00  0.00  0.00  0.02  0.00
  WS02004402WS02004403    1.00   0.02  0.00  0.00  0.98  0.00  0.00  0.00  0.00  0.00
  WS02004139WS02001211    1.00   0.00  0.00  0.00  0.99  0.00  0.01  0.00  0.00  0.00
  WS02004138WS02004139    1.00   0.00  0.00  0.00  0.99  0.01  0.00  0.00  1.00  0.00
  WS02003067WS02003066    1.00   0.06  0.01  0.00  0.94  0.00  0.00  0.00  0.00  0.00
  WS02001213WS02003059    1.00   0.00  0.00  0.00  0.99  0.00  0.00  0.00  0.00  0.00
  WS02001212WS02001213    1.00   0.01  0.00  0.00  0.86  0.00  0.13  0.00  0.00  0.00
  WS02001211WS02001212    1.00   0.00  0.01  0.00  0.99  0.00  0.00  0.00  0.00  0.00
  WS02003072WS02003073    1.00   0.00  0.00  0.00  0.00  0.00  0.00  1.00  0.00  0.00
  WS02003069WS02003072    1.00   0.00  0.00  0.00  0.99  0.01  0.00  0.00  0.23  0.00
  WS02003060WS02003069    1.00   0.00  0.00  0.00  0.98  0.02  0.00  0.00  0.15  0.00
  WS02003059WS02003060    1.00   0.00  0.00  0.00  0.99  0.01  0.00  0.00  0.01  0.00
  HS02004901HS02004770    1.00   0.03  0.00  0.00  0.97  0.00  0.00  0.00  0.00  0.00
  HS02004876HS02004881    1.00   0.02  0.00  0.00  0.98  0.00  0.00  0.00  0.00  0.00
  HS02004870HS02004876    1.00   0.01  0.00  0.00  0.99  0.00  0.00  0.00  0.95  0.00
  HS02004842HS02004848    1.00   0.00  0.03  0.00  0.97  0.00  0.00  0.00  0.58  0.00
  HS02004837HS02004842    1.00   0.00  0.00  0.00  0.99  0.01  0.00  0.00  0.11  0.00
  HS02004830HS02004837    1.00   0.00  0.00  0.00  1.00  0.00  0.00  0.00  0.99  0.00
  HS02004824HS02004830    1.00   0.00  0.00  0.00  1.00  0.00  0.00  0.00  0.00  0.00
  HS02004817HS02004824    1.00   0.00  0.00  0.00  1.00  0.00  0.00  0.00  1.00  0.00
  HS02004770HS02004777    1.00   0.00  0.03  0.00  0.97  0.00  0.00  0.00  0.03  0.00
  HS02004799HS02004480    1.00   0.00  0.01  0.00  0.96  0.00  0.02  0.00  0.00  0.00
  HS02004792HS02004799    1.00   0.00  0.00  0.00  0.99  0.01  0.00  0.00  0.98  0.00
  HS02004788HS02004792    1.00   0.00  0.00  0.00  0.99  0.01  0.00  0.00  0.98  0.00
  HS02004785HS02004788    1.00   0.00  0.00  0.00  1.00  0.00  0.00  0.00  0.00  0.00
  HS02004777HS02004785    1.00   0.00  0.00  0.00  1.00  0.00  0.00  0.00  0.12  0.00
  HS02004480HS02004478    1.00   0.03  0.00  0.00  0.64  0.00  0.00  0.33  0.00  0.00
  HS02004479HS02004480    1.00   0.02  0.00  0.00  0.98  0.00  0.00  0.00  0.12  0.00
  HS02004862HS02004870    1.00   0.00  0.00  0.00  1.00  0.00  0.00  0.00  0.04  0.00
  HS02004848HS02004852    1.00   0.03  0.00  0.00  0.97  0.00  0.00  0.00  0.76  0.00
  HS02004856HS02004862    1.00   0.00  0.04  0.00  0.96  0.00  0.00  0.00  0.83  0.00
  HS02004852HS02004856    1.00   0.03  0.00  0.00  0.97  0.00  0.00  0.00  0.86  0.00
  HS02004802HS02004478    1.00   0.03  0.00  0.00  0.97  0.00  0.00  0.00  0.03  0.00
  HS02004478WS02006287    1.00   0.04  0.00  0.00  0.70  0.26  0.00  0.00  0.65  0.00
  HS02004817HS02004807    1.00   0.00  0.03  0.00  0.97  0.00  0.00  0.00  0.01  0.00
  HS02004807HS02004802    1.00   0.03  0.00  0.00  0.96  0.00  0.00  0.00  0.00  0.00
  YS02001759YS02001757    1.00   0.00  0.00  0.00  1.00  0.00  0.00  0.00  0.16  0.00
  YS02001762YS02001759    1.00   0.00  0.00  0.00  1.00  0.00  0.00  0.00  0.03  0.00
  YS02001765YS02001762    1.00   0.00  0.00  0.00  1.00  0.00  0.00  0.00  0.14  0.00
  YS02001770YS02001767    1.00   0.00  0.00  0.00  1.00  0.00  0.00  0.00  0.00  0.00
  YS02001774YS02001770    1.00   0.00  0.03  0.00  0.97  0.00  0.00  0.00  0.03  0.00
  YS02001779YS02001774    1.00   0.00  0.00  0.00  1.00  0.00  0.00  0.00  0.18  0.00
  YS02001649YS02001757    1.00   0.00  0.00  0.00  1.00  0.00  0.00  0.00  0.16  0.00
  YS02001767YS02001765    1.00   0.00  0.00  0.00  1.00  0.00  0.00  0.00  0.00  0.00
  YS02006561YS02001783    1.00   0.04  0.00  0.00  0.30  0.66  0.00  0.00  0.58  0.00
  YS02001783YS02001784    1.00   0.00  0.04  0.00  0.96  0.00  0.00  0.00  0.00  0.00
  YS02001784YS02001785    1.00   0.00  0.00  0.00  1.00  0.00  0.00  0.00  0.17  0.00
  YS02001788YS02001790    1.00   0.00  0.00  0.00  0.29  0.71  0.00  0.00  0.51  0.00
  YS02001790YS02001791    1.00   0.00  0.00  0.00  0.26  0.74  0.00  0.00  0.54  0.00
  YS02001791YS02001793    1.00   0.00  0.00  0.00  0.26  0.74  0.00  0.00  0.01  0.00
  YS02001910YS02001907    1.00   0.00  0.00  0.00  0.98  0.00  0.00  0.02  0.12  0.00
  YS02001786YS02001788    1.00   0.00  0.00  0.00  0.28  0.72  0.00  0.00  0.00  0.00
  YS02001915YS02001910    1.00   0.00  0.00  0.00  0.99  0.01  0.00  0.00  0.16  0.00
  YS02001918YS02001915    1.00   0.00  0.01  0.00  0.99  0.00  0.00  0.00  0.59  0.00
  YS02001923YS02001920    1.00   0.00  0.00  0.00  1.00  0.00  0.00  0.00  0.88  0.00
  YS02001926YS02001923    1.00   0.00  0.02  0.00  0.06  0.00  0.91  0.00  0.00  0.00
  YS02001929YS02001926    1.00   0.00  0.03  0.00  0.97  0.00  0.00  0.00  0.87  0.00
  YS02001920YS02001918    1.00   0.00  0.01  0.00  0.99  0.00  0.00  0.00  0.00  0.00
  YS02001629YS02163301    1.00   0.04  0.00  0.00  0.96  0.00  0.00  0.00  0.00  0.00
  YS02001619YS02001622    1.00   0.03  0.00  0.00  0.97  0.00  0.00  0.00  0.00  0.00
  YS02001622YS02001625    1.00   0.03  0.00  0.00  0.97  0.00  0.00  0.00  0.04  0.00
  YS02001625YS02001629    1.00   0.03  0.01  0.00  0.94  0.00  0.01  0.00  0.00  0.00
  YS02163301YS02001633    1.00   0.00  0.04  0.00  0.96  0.00  0.00  0.00  0.00  0.00
  YS02163601YS02164001    1.00   0.00  0.03  0.00  0.97  0.00  0.00  0.00  0.00  0.00
  YS02164001YS02001641    1.00   0.01  0.01  0.00  0.97  0.00  0.00  0.00  0.06  0.00
  YS02001641YS02001644    1.00   0.00  0.01  0.00  0.99  0.00  0.00  0.00  0.00  0.00
  YS02001647YS02001649    1.00   0.00  0.04  0.00  0.96  0.00  0.00  0.00  0.01  0.00
  YS02006553YS02006556    1.00   0.01  0.00  0.00  0.99  0.00  0.00  0.00  0.03  0.00
  YS02006556YS02006558    1.00   0.00  0.00  0.00  1.00  0.00  0.00  0.00  0.00  0.00
  YSB6556YSB1171          1.00   0.02  0.01  0.00  0.97  0.00  0.00  0.00  0.00  0.00
  YS02001907YS02006553    1.00   0.00  0.01  0.00  0.98  0.00  0.00  0.00  0.00  0.00
  YS02006558YS02006561    1.00   0.04  0.00  0.00  0.10  0.86  0.00  0.00  0.51  0.00
  YS02001633YS02163601    1.00   0.00  0.01  0.00  0.99  0.00  0.00  0.00  0.15  0.00
  YS02001644YS02001647    1.00   0.00  0.04  0.00  0.96  0.00  0.00  0.00  0.00  0.00
  YS02001745YS02001748    1.00   0.00  0.00  0.00  0.91  0.01  0.00  0.08  0.05  0.00
  YS02001748YS02001751    1.00   0.00  0.00  0.00  0.98  0.02  0.00  0.00  0.14  0.00
  YS02001751YS02001754    1.00   0.00  0.00  0.00  0.95  0.00  0.00  0.04  0.02  0.00
  YS02001754YS02001757    1.00   0.00  0.00  0.00  0.99  0.01  0.00  0.00  0.18  0.00
  YS02001882YS02001884    1.00   0.04  0.00  0.00  0.96  0.00  0.00  0.00  0.00  0.00
  YS02001884YS02001887    1.00   0.02  0.01  0.00  0.97  0.00  0.00  0.00  0.00  0.00
  YS02001890YS02001895    1.00   0.00  0.03  0.00  0.96  0.00  0.00  0.00  0.00  0.00
  YS02001895YS02001898    1.00   0.04  0.00  0.00  0.96  0.00  0.00  0.00  0.00  0.00
  YS02001898YS02001901    1.00   0.04  0.00  0.00  0.96  0.00  0.00  0.00  0.01  0.00
  YS02001901YS02001904    1.00   0.04  0.00  0.00  0.96  0.00  0.00  0.00  0.00  0.00
  YS02001904YS02001907    1.00   0.00  0.03  0.00  0.96  0.00  0.00  0.00  0.00  0.00
  YS02001887YS02001890    1.00   0.00  0.00  0.00  0.98  0.00  0.01  0.00  0.00  0.00
  YS02001652YS02001649    1.00   0.00  0.00  0.00  1.00  0.00  0.00  0.00  0.16  0.00
  YS02001655YS02001652    1.00   0.00  0.00  0.00  0.95  0.00  0.00  0.04  0.02  0.00
  YS02001658YS02001655    1.00   0.00  0.03  0.00  0.94  0.02  0.00  0.00  0.03  0.00
  YS02001661YS02001658    1.00   0.03  0.00  0.00  0.90  0.06  0.00  0.00  0.04  0.00
  YS02001664YS02001661    1.00   0.03  0.00  0.00  0.86  0.11  0.00  0.00  0.19  0.00
  YSB1154YSB6556          1.00   0.03  0.00  0.00  0.97  0.00  0.00  0.00  0.02  0.00
  YSB1174YSB1171          1.00   0.02  0.01  0.00  0.97  0.00  0.00  0.00  0.00  0.00
  YSB1171HS02004479       1.00   0.02  0.00  0.00  0.98  0.00  0.00  0.00  0.10  0.00
  HS02004881HS02006253    1.00   0.02  0.00  0.00  0.74  0.02  0.00  0.21  0.62  0.00
  YS02001793JiankangQianchi    1.00   0.00  0.00  0.00  0.53  0.47  0.00  0.00  0.26  0.00
  YS02001757CaochengTiaoxuchi    1.00   0.00  0.05  0.00  0.93  0.02  0.00  0.00  0.00  0.00
  WSF200WS02003060        1.00   0.00  0.07  0.00  0.49  0.44  0.00  0.00  0.15  0.00
  1                       1.00   0.00  0.00  0.00  0.00  1.00  0.00  0.00  0.36  0.00
  2                       1.00   0.64  0.00  0.00  0.00  0.36  0.00  0.00  0.06  0.00
  3                       1.00   0.07  0.00  0.00  0.00  0.93  0.00  0.00  0.02  0.00
  4                       1.00   1.00  0.00  0.00  0.00  0.00  0.00  0.00  0.00  0.00
  
  
  *************************
  Conduit Surcharge Summary
  *************************
  
  ----------------------------------------------------------------------------
                                                           Hours        Hours 
                         --------- Hours Full --------   Above Full   Capacity
  Conduit                Both Ends  Upstream  Dnstream   Normal Flow   Limited
  ----------------------------------------------------------------------------
  WS02006229WS02006228        2.13      2.31      2.13      4.83         2.13
  WS02006256WS02006235        6.28      6.28      7.53      4.06         0.01
  WS02006252WS02006251        0.70      0.70      1.46      1.27         0.01
  WS02006251WS02006249        0.01      0.01      0.01      0.75         0.01
  WS02006249WS02006248        0.01      0.01      0.01      4.39         0.01
  WS02006247WS02006245        0.01      0.01      0.01      4.91         0.01
  WS02006245WS02006243        0.01      0.01      0.01      0.01         0.01
  WS02006243WS02006242        0.17      0.17      1.48      0.01         0.01
  WS02006242WS02006240        0.94      0.94      1.79      1.41         0.01
  WS02006240WS02006239        1.00      1.00      1.10      0.01         0.01
  WS02006239WS02006238        1.76      1.76      1.88      0.01         0.01
  WS02006238WS02006235        1.78      1.78      2.11      0.01         0.01
  WS02006235WS02006234        1.07      1.07      1.61      6.30         0.01
  WS02006234WS02006232        1.16      1.16      2.24      0.01         0.01
  WS02006232WS02006231        0.70      0.70      2.24      0.01         0.01
  WS02006231WS02006230        0.01      0.01      0.79      6.26         0.01
  WS02006230WS02006229        2.92      4.44      2.92      6.33         2.92
  WS02006228WS02006109        2.21      2.63      2.21      5.61         2.21
  WS02006112WS02006115        0.01      0.01      1.27      0.01         0.01
  WS02006111WS02006112        0.01      0.01      4.93      0.01         0.01
  WS02006110WS02006113        0.01      0.01      2.50      0.01         0.01
  WS02006109WS02006110        1.09      1.09      2.62      1.10         0.01
  WS02004405WS02004406        0.01      0.01      0.01      1.19         0.01
  WS02004404WS02004405        0.01      0.32      0.01      6.23         0.01
  WS02004403WS02004404        0.01      0.01      0.32      0.01         0.01
  WS02003072WS02003073        0.01      0.01      0.01      4.98         0.01
  YS02001759YS02001757        5.98      5.98      6.04      0.01         0.01
  YS02001762YS02001759        5.95      5.95      5.98      0.01         0.01
  YS02001765YS02001762        5.94      5.94      5.95      0.01         0.01
  YS02001770YS02001767        5.92      5.92      5.92      0.07         0.81
  YS02001774YS02001770        5.86      5.86      5.95      0.01         0.01
  YS02001779YS02001774        5.71      5.71      5.95      0.01         0.01
  YS02001649YS02001757        5.96      5.96      6.04      0.01         0.01
  YS02001767YS02001765        5.92      5.92      5.94      0.01         0.01
  YS02006561YS02001783        0.01      0.01      0.82      0.01         0.01
  YS02001783YS02001784        0.82      0.82      0.90      1.03         0.59
  YS02001784YS02001785        0.82      0.90      0.82      1.99         0.82
  YS02001788YS02001790        0.81      0.81      1.51      0.01         0.01
  YS02001790YS02001791        1.51      1.51      1.53      0.01         0.01
  YS02001791YS02001793        1.53      1.53      1.63      0.01         0.01
  YS02001910YS02001907        0.61      0.61      1.43      0.01         0.01
  YS02001786YS02001788        0.81      0.82      0.81      1.62         0.81
  YS02001915YS02001910        0.27      0.27      0.61      0.01         0.01
  YS02001918YS02001915        0.01      0.01      0.27      0.01         0.01
  YS02001629YS02163301        5.85      5.85      5.91      0.01         0.01
  YS02001619YS02001622        5.50      5.50      5.57      0.01         0.01
  YS02001622YS02001625        5.57      5.57      5.76      0.01         0.01
  YS02001625YS02001629        5.52      5.52      5.76      0.01         0.01
  YS02163301YS02001633        5.91      5.91      5.95      0.01         0.01
  YS02163601YS02164001        5.94      5.94      5.96      0.01         0.01
  YS02164001YS02001641        5.94      5.94      5.94      0.01         0.03
  YS02001641YS02001644        5.94      5.94      5.95      1.04         1.24
  YS02001647YS02001649        5.75      5.75      5.96      0.01         0.01
  YS02006553YS02006556        1.01      1.01      1.48      0.01         0.01
  YS02006556YS02006558        1.27      1.27      1.56      0.01         0.01
  YS02001907YS02006553        2.04      2.04      2.24      0.01         0.01
  YS02006558YS02006561        0.47      0.95      0.47      1.89         0.47
  YS02001633YS02163601        5.93      5.93      5.96      0.01         0.01
  YS02001644YS02001647        5.75      5.75      5.95      0.01         0.01
  YS02001745YS02001748        0.01      0.01      5.25      0.01         0.01
  YS02001748YS02001751        5.34      5.34      5.48      0.01         0.01
  YS02001751YS02001754        5.48      5.48      5.73      0.01         0.01
  YS02001754YS02001757        5.75      5.75      6.04      0.01         0.01
  YS02001882YS02001884        0.30      0.30      0.37      0.01         0.01
  YS02001884YS02001887        0.45      0.45      0.50      0.01         0.01
  YS02001890YS02001895        0.24      0.24      0.65      0.01         0.01
  YS02001895YS02001898        0.20      0.20      0.24      0.01         0.01
  YS02001898YS02001901        0.26      0.26      0.45      0.01         0.01
  YS02001901YS02001904        0.41      0.41      0.45      0.01         0.01
  YS02001904YS02001907        0.41      0.41      1.51      0.01         0.01
  YS02001887YS02001890        0.55      0.55      0.58      0.01         0.01
  YS02001652YS02001649        5.75      5.75      5.96      0.01         0.01
  YS02001655YS02001652        5.53      5.53      5.74      0.01         0.01
  YS02001658YS02001655        5.29      5.29      5.53      0.01         0.01
  YS02001661YS02001658        0.20      0.20      5.29      0.01         0.01
  YS02001664YS02001661        0.01      0.01      1.06      0.01         0.01
  YS02001793JiankangQianchi        1.60      1.60      2.83      0.01         0.01
  YS02001757CaochengTiaoxuchi        5.17      5.17      6.04      0.01         0.01
  3                           0.01      0.01      0.01      0.01         0.01
  
  
  ***************
  Pumping Summary
  ***************
  
  ---------------------------------------------------------------------------------------------------------
                                                  Min       Avg       Max     Total     Power    % Time Off
                        Percent   Number of      Flow      Flow      Flow    Volume     Usage    Pump Curve
  Pump                 Utilized   Start-Ups       LPS       LPS       LPS  10^6 ltr     Kw-hr    Low   High
  ---------------------------------------------------------------------------------------------------------
  CC-Pump-1               66.28           7      0.00    142.36    200.00     2.634      3.09    0.0    7.2
  CC-Pump-2               47.13           7      0.00    131.26    200.00     1.731      2.88    0.0   14.2
  JK-Pump-1               91.48           7      0.00    195.08    300.00     4.156     54.60    0.0    0.0
  JK-Pump-2               82.97           6      0.00    178.96    300.00     3.388     47.76    0.0    0.0
  XR-Pump-1               80.83          11      0.00     62.45     95.00     1.396      8.44    0.0    0.0
  XR-Pump-2               87.22          10      0.00     68.41     95.00     1.710     11.13    0.0    0.0
  XR-Pump-3               78.72          10      0.00     61.25     95.00     1.425      9.94    0.0    0.0
  XR-Pump-4               65.94          10      0.00     66.16     95.00     1.225      7.16    0.0    0.0
  

  Analysis begun on:  Wed Dec 15 16:54:54 2021
  Analysis ended on:  Wed Dec 15 16:54:58 2021
  Total elapsed time: 00:00:04