
  EPA STORM WATER MANAGEMENT MODEL - VERSION 5.1 (Build 5.3.0.dev0)
  --------------------------------------------------------------

  WARNING 04: minimum elevation drop used for Conduit WS02004404WS02004405
  WARNING 03: negative offset ignored for Link YS02001904YS02001907
  
  *********************************************************
  NOTE: The summary statistics displayed in this report are
  based on results found at every computational time step,  
  not just on results from each reporting time step.
  *********************************************************
  
  ****************
  Analysis Options
  ****************
  Flow Units ............... LPS
  Process Models:
    Rainfall/Runoff ........ YES
    RDII ................... NO
    Snowmelt ............... NO
    Groundwater ............ NO
    Flow Routing ........... YES
    Ponding Allowed ........ NO
    Water Quality .......... NO
  Infiltration Method ...... HORTON
  Flow Routing Method ...... DYNWAVE
  Surcharge Method ......... EXTRAN
  Starting Date ............ 08/28/2015 08:00:00
  Ending Date .............. 08/28/2015 15:50:00
  Antecedent Dry Days ...... 8.0
  Report Time Step ......... 00:01:00
  Wet Time Step ............ 00:01:00
  Dry Time Step ............ 00:01:00
  Routing Time Step ........ 5.00 sec
  Variable Time Step ....... YES
  Maximum Trials ........... 8
  Number of Threads ........ 4
  Head Tolerance ........... 0.001500 m
  
  
  **************************        Volume         Depth
  Runoff Quantity Continuity     hectare-m            mm
  **************************     ---------       -------
  Total Precipitation ......         5.493        12.027
  Evaporation Loss .........         0.000         0.000
  Infiltration Loss ........         1.412         3.091
  Surface Runoff ...........         3.074         6.729
  Final Storage ............         1.009         2.209
  Continuity Error (%) .....        -0.014
  
  
  **************************        Volume        Volume
  Flow Routing Continuity        hectare-m      10^6 ltr
  **************************     ---------     ---------
  Dry Weather Inflow .......         0.616         6.165
  Wet Weather Inflow .......         3.072        30.724
  Groundwater Inflow .......         0.000         0.000
  RDII Inflow ..............         0.000         0.000
  External Inflow ..........         0.102         1.024
  External Outflow .........         2.071        20.710
  Flooding Loss ............         1.234        12.338
  Evaporation Loss .........         0.000         0.000
  Exfiltration Loss ........         0.000         0.000
  Initial Stored Volume ....         0.076         0.761
  Final Stored Volume ......         0.602         6.025
  Continuity Error (%) .....        -1.033
  
  
  *************************
  Highest Continuity Errors
  *************************
  Node HS02004842 (16.38%)
  Node YS02001884 (10.10%)
  Node JK-storage (-3.96%)
  Node YS02001774 (3.17%)
  Node YSB1171 (3.16%)
  
  
  ***************************
  Time-Step Critical Elements
  ***************************
  Link WS02006252WS02006251 (47.49%)
  Link 3 (41.56%)
  Link WS02006238WS02006235 (4.01%)
  Link 2 (1.58%)
  Link WS02006280WS02006229 (1.01%)
  
  
  ********************************
  Highest Flow Instability Indexes
  ********************************
  Link YS02001619YS02001622 (39)
  Link YS02163601YS02164001 (38)
  Link YS02001629YS02163301 (38)
  Link YS02163301YS02001633 (38)
  Link YS02164001YS02001641 (36)
  
  
  *************************
  Routing Time Step Summary
  *************************
  Minimum Time Step           :     0.37 sec
  Average Time Step           :     0.77 sec
  Maximum Time Step           :     5.00 sec
  Percent in Steady State     :    -0.00
  Average Iterations per Step :     4.84
  Percent Not Converging      :    26.05
  
  
  ***************************
  Subcatchment Runoff Summary
  ***************************
  
  ------------------------------------------------------------------------------------------------------------------------------
                            Total      Total      Total      Total     Imperv       Perv      Total       Total     Peak  Runoff
                           Precip      Runon       Evap      Infil     Runoff     Runoff     Runoff      Runoff   Runoff   Coeff
  Subcatchment                 mm         mm         mm         mm         mm         mm         mm    10^6 ltr      LPS
  ------------------------------------------------------------------------------------------------------------------------------
  sub0                      12.03       0.00       0.00       0.84       9.92       0.00       9.92        0.01     2.03   0.825
  sub1                      12.03       0.00       0.00       1.32       9.45       0.00       9.45        0.06    13.40   0.786
  sub2                      12.03       0.00       0.00       4.45       6.67       0.00       6.67        0.06    12.40   0.555
  sub3                      12.03       0.00       0.00       4.45       6.63       0.00       6.63        0.15    27.80   0.552
  sub4                      12.03       0.00       0.00       1.32       9.30       0.00       9.30        0.19    33.44   0.773
  sub5                      12.03       0.00       0.00       0.84       9.87       0.00       9.87        0.11    23.84   0.821
  sub7                      12.03       0.00       0.00       1.08       9.69       0.00       9.69        0.03     7.67   0.806
  sub8                      12.03       0.00       0.00       1.08       9.68       0.00       9.68        0.06    14.05   0.805
  sub9                      12.03       0.00       0.00       1.08       9.68       0.00       9.68        0.05    10.50   0.805
  sub10                     12.03       0.00       0.00       0.96       9.77       0.00       9.77        0.11    23.44   0.813
  sub11                     12.03       0.00       0.00       0.96       9.79       0.00       9.79        0.11    26.14   0.814
  sub12                     12.03       0.00       0.00       1.56       9.28       0.00       9.28        0.08    19.99   0.771
  sub14                     12.03       0.00       0.00       1.08       9.68       0.00       9.68        0.09    20.64   0.805
  sub15                     12.03       0.00       0.00       3.61       7.44       0.00       7.44        0.13    28.31   0.619
  sub16                     12.03       0.00       0.00       3.97       7.14       0.00       7.14        0.07    18.12   0.594
  sub17                     12.03       0.00       0.00       3.85       7.24       0.00       7.24        0.06    14.90   0.602
  sub22                     12.03       0.00       0.00       5.17       6.07       0.00       6.07        0.38    88.71   0.504
  sub23                     12.03       0.00       0.00       4.45       6.71       0.00       6.71        0.32    74.74   0.558
  sub60                     12.03       0.00       0.00       1.44       7.74       0.00       7.74        2.35   221.95   0.644
  sub61                     12.03       0.00       0.00       2.04       7.85       0.00       7.85        2.42   262.11   0.653
  sub62                     12.03       0.00       0.00       0.96       8.54       0.00       8.54        2.63   273.68   0.710
  sub63                     12.03       0.00       0.00       3.49       6.87       0.00       6.87        2.08   239.63   0.571
  sub64                     12.03       0.00       0.00       1.80       7.43       0.00       7.43        2.26   211.47   0.618
  sub65                     12.03       0.00       0.00       1.56       7.55       0.00       7.55        2.32   215.23   0.628
  sub66                     12.03       0.00       0.00       3.49       6.37       0.00       6.37        1.95   191.04   0.530
  sub67                     12.03       0.00       0.00       0.96       9.00       0.00       9.00        2.78   332.67   0.749
  sub68                     12.03       0.00       0.00       1.68       8.26       0.00       8.26        2.54   285.76   0.687
  sub69                     12.03       0.00       0.00       1.80       8.55       0.00       8.55        2.00   265.64   0.711
  sub70                     12.03       8.73       0.00       6.95      11.44       0.11      11.55        2.64   261.84   0.556
  sub71                     12.03       0.00       0.00       0.96       8.33       0.00       8.33        1.97   195.24   0.692
  sub72                     12.03       0.00       0.00       0.84       6.67       0.00       6.67        1.36   105.11   0.555
  sub73                     12.03      11.24       0.00       7.83      12.57       0.08      12.65        2.97   255.46   0.544
  sub74                     12.03       0.00       0.00       9.02       2.55       0.00       2.55        1.02   143.98   0.212
  
  
  ******************
  Node Depth Summary
  ******************
  
  ---------------------------------------------------------------------------------
                                 Average  Maximum  Maximum  Time of Max    Reported
                                   Depth    Depth      HGL   Occurrence   Max Depth
  Node                 Type       Meters   Meters   Meters  days hr:min      Meters
  ---------------------------------------------------------------------------------
  WS02001211           JUNCTION     0.65     0.79     5.63     0  02:31        0.79
  WS02001212           JUNCTION     0.38     0.50     5.57     0  02:31        0.50
  WS02001213           JUNCTION     0.62     0.76     5.52     0  02:31        0.76
  WS02003069           JUNCTION     0.45     0.58     5.17     0  02:33        0.58
  WS02003072           JUNCTION     0.52     0.64     5.01     0  02:33        0.64
  WS02003073           JUNCTION     0.31     0.39     4.46     0  02:34        0.39
  WS02003060           JUNCTION     0.41     0.52     5.45     0  02:32        0.52
  WS02003066           JUNCTION     0.25     0.33     5.88     0  01:57        0.33
  WS02003059           JUNCTION     0.68     0.81     5.50     0  02:32        0.81
  WS02003067           JUNCTION     0.60     0.74     6.06     0  01:57        0.74
  WS02004401           JUNCTION     0.72     0.97     6.97     0  01:55        0.97
  WS02004402           JUNCTION     0.75     0.99     6.95     0  01:55        0.99
  WS02004403           JUNCTION     0.77     0.99     6.92     0  01:55        0.99
  WS02004404           JUNCTION     0.84     1.05     6.90     0  01:55        1.05
  WS02004406           JUNCTION     0.84     1.03     6.86     0  01:53        1.03
  WS02004409           JUNCTION     0.54     0.75     6.52     0  01:56        0.75
  WS02004410           JUNCTION     0.56     0.76     6.48     0  01:56        0.76
  WS02004411           JUNCTION     0.57     0.76     6.44     0  01:56        0.76
  WS02004412           JUNCTION     0.58     0.76     6.40     0  01:57        0.76
  WS02004413           JUNCTION     0.74     0.91     6.38     0  01:57        0.91
  WS02004405           JUNCTION     0.84     1.04     6.89     0  01:53        1.04
  WS02006109           JUNCTION     0.81     1.09     7.71     0  01:57        1.08
  WS02006110           JUNCTION     0.79     1.01     7.59     0  01:57        1.00
  WS02006111           JUNCTION     0.24     0.35     7.06     0  01:54        0.35
  WS02006112           JUNCTION     0.90     1.20     7.08     0  01:53        1.18
  WS02006113           JUNCTION     0.37     0.51     7.40     0  01:49        0.50
  WS02006115           JUNCTION     0.62     0.88     7.02     0  01:52        0.88
  WS02006116           JUNCTION     0.70     0.96     7.00     0  01:52        0.96
  WS02006230           JUNCTION     0.80     1.18     7.92     0  01:48        1.17
  WS02006231           JUNCTION     0.54     0.84     7.96     0  01:47        0.82
  WS02006232           JUNCTION     0.68     0.98     8.02     0  01:40        0.94
  WS02006234           JUNCTION     0.60     0.97     8.13     0  01:40        0.86
  WS02006235           JUNCTION     0.63     0.93     8.09     0  01:40        0.88
  WS02006238           JUNCTION     0.66     0.95     8.09     0  01:40        0.91
  WS02006240           JUNCTION     0.56     0.85     8.14     0  01:41        0.81
  WS02006242           JUNCTION     0.62     1.27     8.53     0  01:40        0.87
  WS02006243           JUNCTION     0.50     0.76     8.18     0  01:48        0.75
  WS02006245           JUNCTION     0.48     0.72     8.21     0  01:50        0.71
  WS02006247           JUNCTION     0.49     0.88     8.38     0  01:46        0.72
  WS02006248           JUNCTION     0.43     0.65     8.24     0  01:50        0.65
  WS02006249           JUNCTION     0.46     0.66     8.25     0  01:50        0.65
  WS02006239           JUNCTION     0.62     0.90     8.11     0  01:41        0.87
  WS02006251           JUNCTION     0.45     0.71     8.38     0  01:50        0.70
  WS02006252           JUNCTION     0.40     0.59     8.84     0  03:14        0.59
  WS02006253           JUNCTION     0.48     0.74     8.38     0  01:50        0.73
  WS02006256           JUNCTION     1.06     1.21     8.15     0  02:00        1.21
  WS02004138           JUNCTION     0.15     0.19     7.44     0  07:22        0.19
  WS02004407           JUNCTION     0.24     0.33     6.64     0  01:55        0.33
  WS02006228           JUNCTION     0.82     1.26     7.92     0  07:21        1.15
  WS02006229           JUNCTION     0.80     1.17     7.87     0  01:48        1.17
  WS02006280           JUNCTION     0.07     0.19     8.46     0  01:42        0.19
  WS02006284           JUNCTION     0.37     0.54     8.94     0  01:42        0.54
  WS02006287           JUNCTION     0.10     0.28     9.23     0  01:42        0.28
  WSF200               JUNCTION     0.24     0.34     5.58     0  01:57        0.34
  HS02004901           JUNCTION     0.13     0.28    10.10     0  01:39        0.28
  HS02004881           JUNCTION     0.01     0.03     9.06     0  01:43        0.03
  HS02004876           JUNCTION     0.05     0.12     9.15     0  01:43        0.12
  HS02004870           JUNCTION     0.02     0.06     9.35     0  01:43        0.06
  HS02004862           JUNCTION     0.02     0.07     9.45     0  01:44        0.07
  HS02004856           JUNCTION     0.08     0.12     9.55     0  01:44        0.12
  HS02004852           JUNCTION     0.01     0.04     9.56     0  01:52        0.04
  HS02004848           JUNCTION     0.01     0.04     9.64     0  01:51        0.04
  HS02004842           JUNCTION     0.33     0.37     9.64     0  01:51        0.37
  HS02004837           JUNCTION     0.03     0.06     9.64     0  01:51        0.06
  HS02004830           JUNCTION     0.04     0.08     9.55     0  01:45        0.08
  HS02004824           JUNCTION     0.02     0.06     9.46     0  01:54        0.06
  HS02004817           JUNCTION     0.44     0.59     9.43     0  01:43        0.59
  HS02004807           JUNCTION     0.13     0.26     9.43     0  01:43        0.26
  HS02004802           JUNCTION     0.17     0.30     9.42     0  01:43        0.29
  HS02004799           JUNCTION     0.13     0.33     9.54     0  01:40        0.33
  HS02004792           JUNCTION     0.04     0.14     9.66     0  01:40        0.14
  HS02004788           JUNCTION     0.03     0.10    10.00     0  01:40        0.10
  HS02004785           JUNCTION     0.05     0.17    10.07     0  01:40        0.17
  HS02004777           JUNCTION     0.15     0.30    10.10     0  01:39        0.30
  HS02004770           JUNCTION     0.12     0.27    10.10     0  01:39        0.27
  HS02004480           JUNCTION     0.09     0.27     9.51     0  01:41        0.27
  HS02004479           JUNCTION     0.12     0.30     9.51     0  01:40        0.30
  HS02004478           JUNCTION     0.07     0.18     9.41     0  01:42        0.18
  YS02001745           JUNCTION     0.70     0.88     8.40     0  02:49        0.88
  YS02001748           JUNCTION     1.10     2.27     9.35     0  02:09        1.31
  YS02001751           JUNCTION     1.29     2.20     9.08     0  02:00        1.52
  YS02001754           JUNCTION     1.54     2.09     8.70     0  02:00        1.80
  YS02001762           JUNCTION     1.75     2.03     8.43     0  02:53        2.02
  YS02001765           JUNCTION     1.70     1.98     8.43     0  02:53        1.97
  YS02001767           JUNCTION     1.66     1.93     8.42     0  02:56        1.92
  YS02001770           JUNCTION     1.66     1.91     8.41     0  02:45        1.90
  YS02001774           JUNCTION     1.73     1.97     8.40     0  02:50        1.97
  YS02001779           JUNCTION     1.47     1.68     8.37     0  02:04        1.68
  YS02001882           JUNCTION     0.51     1.37     8.09     0  02:29        1.36
  YS02001884           JUNCTION     0.61     1.47     8.09     0  02:29        1.47
  YS02001759           JUNCTION     1.78     2.07     8.43     0  02:53        2.05
  YS02001887           JUNCTION     0.69     1.55     8.09     0  02:31        1.54
  YS02001890           JUNCTION     0.72     1.58     8.09     0  02:30        1.58
  YS02001898           JUNCTION     0.49     1.33     8.07     0  02:31        1.33
  YS02001901           JUNCTION     0.61     1.46     8.07     0  02:29        1.45
  YS02001904           JUNCTION     0.58     1.43     8.06     0  02:29        1.42
  YS02001907           JUNCTION     0.91     1.77     8.06     0  02:30        1.76
  YS02001910           JUNCTION     0.70     1.56     8.06     0  02:30        1.55
  YS02001915           JUNCTION     0.50     1.35     8.07     0  02:31        1.35
  YS02001918           JUNCTION     0.25     0.99     8.06     0  02:30        0.99
  YS02001619           JUNCTION     1.26     1.61     8.54     0  02:06        1.56
  YS02001629           JUNCTION     1.62     1.85     8.40     0  02:05        1.84
  YS02001641           JUNCTION     1.71     1.98     8.42     0  02:09        1.93
  YS02001644           JUNCTION     1.72     1.92     8.35     0  02:06        1.92
  YS02001652           JUNCTION     1.56     2.16     8.76     0  02:04        2.01
  YS02001655           JUNCTION     1.32     2.20     9.05     0  01:56        2.01
  YS02001920           JUNCTION     0.35     1.05     8.06     0  02:30        1.05
  YS02001923           JUNCTION     0.19     0.80     8.06     0  02:31        0.80
  YS02001926           JUNCTION     0.24     0.62     8.06     0  02:30        0.61
  YS02001929           JUNCTION     0.12     0.37     8.06     0  02:31        0.37
  YS02001658           JUNCTION     1.04     2.30     9.44     0  02:05        1.98
  YS02001661           JUNCTION     0.81     2.40     9.80     0  03:11        2.04
  YS02001664           JUNCTION     0.34     0.58     8.50     0  02:24        0.56
  YS02001622           JUNCTION     1.28     1.62     8.52     0  02:06        1.54
  YS02001633           JUNCTION     1.71     2.01     8.46     0  02:09        1.94
  YS02001649           JUNCTION     1.75     2.05     8.44     0  02:06        2.05
  YS02001757           JUNCTION     1.88     2.17     8.43     0  02:53        2.16
  YS02001895           JUNCTION     0.48     1.33     8.08     0  02:30        1.33
  YS02001625           JUNCTION     1.57     1.78     8.38     0  02:05        1.78
  YS02163301           JUNCTION     1.65     1.92     8.44     0  02:11        1.88
  YS02163601           JUNCTION     1.76     2.07     8.47     0  02:09        1.99
  YS02164001           JUNCTION     1.70     2.00     8.45     0  02:09        1.92
  YS02001647           JUNCTION     1.55     1.81     8.42     0  02:06        1.79
  YSB1154              JUNCTION     0.26     0.45     9.51     0  01:40        0.45
  YSB6556              JUNCTION     0.16     0.34     9.51     0  01:40        0.34
  YSB1174              JUNCTION     0.22     0.40     9.51     0  01:41        0.40
  YSB1171              JUNCTION     0.41     0.61     9.51     0  01:40        0.61
  YS02006553           JUNCTION     0.91     1.76     8.04     0  02:33        1.75
  YS02006561           JUNCTION     0.30     0.92     7.58     0  02:30        0.92
  YS02006556           JUNCTION     0.88     1.71     8.02     0  02:30        1.71
  YS02006558           JUNCTION     0.92     1.75     8.02     0  02:30        1.74
  YS02001783           JUNCTION     0.55     1.34     7.48     0  02:30        1.34
  YS02001784           JUNCTION     0.57     1.31     7.38     0  02:02        1.29
  YS02001786           JUNCTION     0.53     1.52     7.55     0  02:02        1.16
  YS02001788           JUNCTION     0.48     1.63     7.61     0  02:02        1.05
  YS02001790           JUNCTION     0.63     1.60     7.24     0  02:02        1.24
  YS02001791           JUNCTION     0.64     1.39     6.86     0  02:02        1.25
  YS02001793           JUNCTION     0.95     1.82     6.66     0  02:02        1.80
  WS02004139           JUNCTION     0.59     0.73     5.64     0  02:30        0.73
  WSC                  OUTFALL      0.31     0.39     1.06     0  02:34        0.39
  3                    OUTFALL      0.10     0.21     6.21     0  02:00        0.21
  4                    OUTFALL      0.03     0.16     7.16     0  01:50        0.15
  5                    OUTFALL      0.00     0.00     5.00     0  00:00        0.00
  JK-storage           STORAGE      3.60     5.80     6.60     0  02:02        5.80
  CC-storage           STORAGE      1.10     1.38     8.38     0  02:49        1.38
  XR-storage           STORAGE      7.27     7.72     5.72     0  02:02        7.72
  
  
  *******************
  Node Inflow Summary
  *******************
  
  -------------------------------------------------------------------------------------------------
                                  Maximum  Maximum                  Lateral       Total        Flow
                                  Lateral    Total  Time of Max      Inflow      Inflow     Balance
                                   Inflow   Inflow   Occurrence      Volume      Volume       Error
  Node                 Type           LPS      LPS  days hr:min    10^6 ltr    10^6 ltr     Percent
  -------------------------------------------------------------------------------------------------
  WS02001211           JUNCTION      7.35   386.76     0  07:28       0.207        6.63       0.339
  WS02001212           JUNCTION      0.00   385.86     0  07:30           0        6.61       0.185
  WS02001213           JUNCTION      0.00   385.19     0  07:30           0        6.59       0.292
  WS02003069           JUNCTION      0.32   943.72     0  02:32     0.00902        16.1       0.154
  WS02003072           JUNCTION      0.00   943.38     0  02:33           0          16       0.198
  WS02003073           JUNCTION      1.82   944.98     0  02:33      0.0514          16       0.219
  WS02003060           JUNCTION     16.53   943.52     0  02:32       0.466        16.1       0.146
  WS02003066           JUNCTION      0.00   658.62     0  01:57           0        9.07       0.051
  WS02003059           JUNCTION      0.00   384.33     0  07:31           0        6.58       0.472
  WS02003067           JUNCTION      0.00   658.54     0  01:57           0        9.08       0.106
  WS02004401           JUNCTION      0.00   661.02     0  01:55           0        9.32       0.235
  WS02004402           JUNCTION      0.00   660.39     0  01:55           0         9.3       0.221
  WS02004403           JUNCTION      0.00   659.90     0  01:55           0        9.27       0.200
  WS02004404           JUNCTION      0.16   658.99     0  01:55     0.00457        9.26       0.151
  WS02004406           JUNCTION      0.00   659.25     0  01:55           0        9.23       0.367
  WS02004409           JUNCTION      0.00   659.11     0  01:55           0        9.19       0.185
  WS02004410           JUNCTION      0.00   658.90     0  01:56           0        9.17       0.209
  WS02004411           JUNCTION      0.00   658.79     0  01:56           0        9.15       0.214
  WS02004412           JUNCTION      0.00   658.75     0  01:56           0        9.13       0.230
  WS02004413           JUNCTION      0.00   658.62     0  01:57           0        9.11       0.338
  WS02004405           JUNCTION      0.04   659.10     0  01:55     0.00107        9.25       0.226
  WS02006109           JUNCTION      1.23   648.14     0  01:49      0.0347        9.38       0.235
  WS02006110           JUNCTION      0.00   648.12     0  01:48           0        9.36       0.215
  WS02006111           JUNCTION      0.00   683.31     0  01:49           0        9.33       0.049
  WS02006112           JUNCTION     14.90   662.93     0  01:55      0.0621        9.39       0.315
  WS02006113           JUNCTION      0.00   649.91     0  01:49           0        9.34       0.105
  WS02006115           JUNCTION      0.00   664.65     0  01:46           0        9.36       0.220
  WS02006116           JUNCTION      0.00   661.79     0  01:55           0        9.34       0.209
  WS02006230           JUNCTION     10.28   399.21     0  04:42        0.29        7.53       0.181
  WS02006231           JUNCTION      0.00   390.38     0  04:42           0        7.25       0.152
  WS02006232           JUNCTION      0.00   390.45     0  04:41           0        7.26       0.224
  WS02006234           JUNCTION      0.00   392.12     0  05:23           0        7.27       0.124
  WS02006235           JUNCTION      0.00   393.15     0  05:23           0         7.3       0.133
  WS02006238           JUNCTION      0.00   345.46     0  04:50           0        5.37       0.152
  WS02006240           JUNCTION      0.00   340.23     0  04:50           0        5.37       0.221
  WS02006242           JUNCTION      0.00   337.64     0  04:51           0        5.38       0.278
  WS02006243           JUNCTION      0.00   340.41     0  06:11           0        5.37      -0.058
  WS02006245           JUNCTION      0.00   344.26     0  06:11           0        5.37       0.216
  WS02006247           JUNCTION      0.00   348.24     0  06:11           0        5.38       0.130
  WS02006248           JUNCTION      0.00   352.81     0  05:20           0        5.39       0.075
  WS02006249           JUNCTION      0.00   470.11     0  01:50           0        6.08       0.168
  WS02006239           JUNCTION      0.00   345.42     0  04:50           0        5.37       0.203
  WS02006251           JUNCTION      0.08   470.57     0  01:50     0.00217        6.12       0.145
  WS02006252           JUNCTION      0.00   400.00     0  03:00           0        5.73       0.007
  WS02006253           JUNCTION      2.03    76.41     0  01:43     0.00803       0.387       0.975
  WS02006256           JUNCTION      0.00   600.00     0  06:20           0        5.97       0.047
  WS02004138           JUNCTION      0.00   380.00     0  07:20           0        6.44       0.057
  WS02004407           JUNCTION      0.00   659.48     0  01:55           0        9.19       0.082
  WS02006228           JUNCTION      0.00   646.92     0  01:48           0        9.36       0.160
  WS02006229           JUNCTION      0.00   650.56     0  01:48           0        9.38       0.153
  WS02006280           JUNCTION      0.00   366.28     0  01:42           0        1.87       0.003
  WS02006284           JUNCTION      0.10   366.30     0  01:42      0.0027        1.87       0.025
  WS02006287           JUNCTION      0.00   366.22     0  01:42           0        1.87       0.038
  WSF200               JUNCTION      0.00   658.65     0  01:57           0        9.06       0.050
  HS02004901           JUNCTION     18.12    18.12     0  01:36      0.0747      0.0749       2.402
  HS02004881           JUNCTION      7.67    74.61     0  01:43      0.0326       0.352       0.108
  HS02004876           JUNCTION     13.40    67.33     0  01:43      0.0628        0.32       0.168
  HS02004870           JUNCTION     14.05    54.07     0  01:43      0.0618       0.257       0.041
  HS02004862           JUNCTION     12.60    40.55     0  01:44      0.0678       0.196       0.086
  HS02004856           JUNCTION     10.50    27.98     0  01:43      0.0465       0.129       1.130
  HS02004852           JUNCTION      0.00    17.93     0  01:51           0      0.0829       0.064
  HS02004848           JUNCTION     27.80    27.80     0  01:53       0.149       0.149       0.028
  HS02004842           JUNCTION      0.00    10.09     0  01:58           0      0.0794      19.595
  HS02004837           JUNCTION     29.79    38.22     0  01:51       0.287       0.353       0.230
  HS02004830           JUNCTION      0.15    38.36     0  01:51     0.00423       0.343       0.361
  HS02004824           JUNCTION     33.49    71.74     0  01:54       0.195       0.538       0.100
  HS02004817           JUNCTION      0.60    72.33     0  01:54      0.0169       0.554       3.103
  HS02004807           JUNCTION     26.14    95.63     0  01:52       0.114       0.651       0.672
  HS02004802           JUNCTION      0.00    95.92     0  01:53           0       0.649       0.613
  HS02004799           JUNCTION     20.64   230.90     0  01:40      0.0921        1.05       0.258
  HS02004792           JUNCTION     88.99   210.32     0  01:39       0.391       0.955       0.041
  HS02004788           JUNCTION     29.98   122.04     0  01:40       0.175       0.565       0.068
  HS02004785           JUNCTION      0.15    92.14     0  01:39     0.00423       0.391       0.126
  HS02004777           JUNCTION      0.03    92.19     0  01:38    0.000846       0.391       1.344
  HS02004770           JUNCTION     74.74    92.54     0  01:38        0.32       0.393       0.790
  HS02004480           JUNCTION      0.00   273.93     0  01:41           0        1.24       0.088
  HS02004479           JUNCTION      0.00    43.16     0  01:41           0       0.201       0.365
  HS02004478           JUNCTION      0.00   366.17     0  01:42           0        1.87       0.020
  YS02001745           JUNCTION    221.95   348.03     0  02:10        2.35        2.35       0.401
  YS02001748           JUNCTION      0.04   551.60     0  02:10     0.00127        2.34       0.957
  YS02001751           JUNCTION      0.01   412.01     0  02:00     0.00031        2.32       1.028
  YS02001754           JUNCTION      0.26   242.62     0  02:11     0.00733         2.3       1.064
  YS02001762           JUNCTION      0.00   279.78     0  02:14           0        1.91       1.112
  YS02001765           JUNCTION      0.00   278.62     0  02:14           0        1.91       1.278
  YS02001767           JUNCTION      0.54   277.50     0  02:14      0.0151        1.93       1.871
  YS02001770           JUNCTION    273.83   323.50     0  02:54        2.63        2.68       1.176
  YS02001774           JUNCTION      0.00   323.97     0  02:54           0       0.786       3.270
  YS02001779           JUNCTION      0.01   324.29     0  02:54    0.000141       0.755       2.094
  YS02001882           JUNCTION      0.00    15.73     0  02:04           0      0.0212      10.913
  YS02001884           JUNCTION      0.00    28.35     0  02:04           0      0.0568      11.237
  YS02001759           JUNCTION    262.15   541.95     0  02:14        2.42        4.25       0.537
  YS02001887           JUNCTION    333.12   342.37     0  02:12        2.79        2.82       0.285
  YS02001890           JUNCTION      0.00   342.64     0  02:12           0        2.77       0.319
  YS02001898           JUNCTION      0.00   348.07     0  02:12           0        2.76       0.092
  YS02001901           JUNCTION      0.00   339.62     0  02:12           0        2.76       0.240
  YS02001904           JUNCTION      0.00   339.38     0  02:12           0        2.76       0.217
  YS02001907           JUNCTION      0.00   619.64     0  02:33           0        6.14       0.382
  YS02001910           JUNCTION      0.00   319.27     0  03:05           0        3.39       0.332
  YS02001915           JUNCTION    195.26   315.26     0  03:03        1.97         3.4       0.165
  YS02001918           JUNCTION      0.00   134.07     0  02:53           0        1.43       0.123
  YS02001619           JUNCTION    191.04   191.04     0  02:29        1.95        1.95       0.617
  YS02001629           JUNCTION      0.00   214.67     0  02:01           0        1.79       1.596
  YS02001641           JUNCTION      0.00   416.03     0  02:04           0        4.01       0.521
  YS02001644           JUNCTION    211.51  1029.20     0  02:51        2.26        8.03       0.323
  YS02001652           JUNCTION      0.00   293.67     0  02:06           0        2.04       1.105
  YS02001655           JUNCTION      0.15   448.67     0  01:57     0.00434        2.06       1.199
  YS02001920           JUNCTION      2.87   132.89     0  02:51      0.0809        1.44       0.197
  YS02001923           JUNCTION      0.04   115.82     0  02:51     0.00106        1.36       0.051
  YS02001926           JUNCTION      0.05   123.52     0  02:52     0.00147        1.36       0.224
  YS02001929           JUNCTION    105.11   105.11     0  02:59        1.36        1.36       0.036
  YS02001658           JUNCTION      0.00   655.91     0  02:05           0        2.09       1.082
  YS02001661           JUNCTION      0.00   644.49     0  02:24           0         2.8      -0.254
  YS02001664           JUNCTION    239.63   377.55     0  02:24        2.08         2.8       0.200
  YS02001622           JUNCTION      0.00   200.44     0  02:00           0        1.94       1.652
  YS02001633           JUNCTION    215.43   417.04     0  02:04        2.33        4.07       0.784
  YS02001649           JUNCTION      0.00   849.86     0  02:22           0        5.42       0.684
  YS02001757           JUNCTION      0.00  1580.11     0  02:21           0          10       0.918
  YS02001895           JUNCTION      0.00   342.29     0  02:12           0        2.77       0.182
  YS02001625           JUNCTION      0.00   214.69     0  02:01           0        1.91       2.073
  YS02163301           JUNCTION      0.00   229.15     0  02:04           0        1.78       1.352
  YS02163601           JUNCTION      0.11   416.86     0  02:04      0.0031        4.03       0.744
  YS02164001           JUNCTION      0.00   416.67     0  02:04           0        4.01       0.496
  YS02001647           JUNCTION      0.00   608.97     0  02:22           0        4.34       0.643
  YSB1154              JUNCTION     23.84    23.84     0  01:41       0.112       0.113       1.298
  YSB6556              JUNCTION      0.00    24.02     0  01:41           0       0.113       1.116
  YSB1174              JUNCTION     19.99    19.99     0  01:36       0.081      0.0815       1.597
  YSB1171              JUNCTION      0.00    43.59     0  01:40           0         0.2       3.266
  YS02006553           JUNCTION      0.00   619.40     0  02:32           0        6.13       0.249
  YS02006561           JUNCTION      0.00   899.02     0  02:30           0        8.64       0.007
  YS02006556           JUNCTION      0.00   619.40     0  02:34           0        6.14       0.180
  YS02006558           JUNCTION    286.64   899.13     0  02:30        2.56        8.67       0.059
  YS02001783           JUNCTION      0.00   898.88     0  02:30           0        8.64       0.025
  YS02001784           JUNCTION      1.06   900.03     0  02:30      0.0299        8.66       0.039
  YS02001786           JUNCTION      0.06   899.98     0  02:30     0.00159        8.66       0.037
  YS02001788           JUNCTION      0.07   900.12     0  02:30       0.002        8.66       0.022
  YS02001790           JUNCTION      0.15   900.19     0  02:30     0.00437        8.66       0.025
  YS02001791           JUNCTION      0.00   900.26     0  02:30           0        8.66       0.009
  YS02001793           JUNCTION      0.00   900.31     0  02:30           0        8.69       0.002
  WS02004139           JUNCTION      0.32   380.32     0  07:22     0.00905        6.45       0.412
  WSC                  OUTFALL       0.00   944.71     0  02:34           0          16       0.000
  3                    OUTFALL       0.00   530.30     0  02:00           0        4.01       0.000
  4                    OUTFALL       0.00   221.99     0  01:50           0       0.687       0.000
  5                    OUTFALL       0.00     0.00     0  00:00           0           0       0.000 ltr
  JK-storage           STORAGE       0.00   929.15     0  01:56           0        8.84      -3.811
  CC-storage           STORAGE       0.00  1580.24     0  02:21           0        9.04       0.497
  XR-storage           STORAGE     560.10   560.10     0  02:30        9.63        10.2      -0.000
  
  
  **********************
  Node Surcharge Summary
  **********************
  
  Surcharging occurs when water rises above the top of the highest conduit.
  ---------------------------------------------------------------------
                                               Max. Height   Min. Depth
                                   Hours       Above Crown    Below Rim
  Node                 Type      Surcharged         Meters       Meters
  ---------------------------------------------------------------------
  WS02004404           JUNCTION        0.51          0.054        2.726
  WS02004406           JUNCTION        0.36          0.027        2.423
  WS02004405           JUNCTION        0.42          0.041        2.759
  WS02006109           JUNCTION        2.53          0.273        1.547
  WS02006110           JUNCTION        0.92          0.097        1.753
  WS02006112           JUNCTION        1.15          0.201        1.479
  WS02006230           JUNCTION        0.48          0.098        1.472
  WS02006231           JUNCTION        0.68          0.127        1.403
  WS02006232           JUNCTION        2.83          0.279        1.201
  WS02006234           JUNCTION        1.06          0.249        0.991
  WS02006235           JUNCTION        1.82          0.216        1.074
  WS02006238           JUNCTION        2.32          0.227        1.203
  WS02006240           JUNCTION        0.97          0.138        1.252
  WS02006242           JUNCTION        1.86          0.535        0.285
  WS02006243           JUNCTION        0.20          0.049        0.721
  WS02006245           JUNCTION        0.04          0.010        0.840
  WS02006247           JUNCTION        0.07          0.173        0.587
  WS02006239           JUNCTION        1.26          0.158        1.132
  WS02006252           JUNCTION        2.83          0.193        0.907
  WS02006228           JUNCTION        2.34          0.435        1.765
  YS02001748           JUNCTION        5.55          1.190        0.000
  YS02001751           JUNCTION        5.76          1.200        0.000
  YS02001754           JUNCTION        5.98          1.041        0.109
  YS02001762           JUNCTION        6.14          1.030        0.120
  YS02001765           JUNCTION        6.13          0.981        0.119
  YS02001767           JUNCTION        6.13          0.931        0.099
  YS02001770           JUNCTION        6.11          0.882        0.038
  YS02001774           JUNCTION        6.14          0.975        0.075
  YS02001779           JUNCTION        5.96          0.680        0.000
  YS02001882           JUNCTION        0.90          0.373        0.457
  YS02001884           JUNCTION        0.95          0.413        0.457
  YS02001759           JUNCTION        6.15          1.067        0.143
  YS02001887           JUNCTION        1.07          0.501        0.449
  YS02001890           JUNCTION        1.11          0.530        0.230
  YS02001898           JUNCTION        0.82          0.303        0.437
  YS02001901           JUNCTION        1.02          0.460        0.410
  YS02001904           JUNCTION        0.99          0.428        0.422
  YS02001907           JUNCTION        1.68          0.758        0.192
  YS02001910           JUNCTION        1.16          0.558        0.542
  YS02001915           JUNCTION        0.88          0.349        0.651
  YS02001619           JUNCTION        5.76          0.610        0.000
  YS02001629           JUNCTION        5.76          0.470        0.000
  YS02001641           JUNCTION        6.13          0.981        0.119
  YS02001644           JUNCTION        6.13          0.920        0.000
  YS02001652           JUNCTION        6.03          1.130        0.000
  YS02001655           JUNCTION        5.79          1.200        0.000
  YS02001920           JUNCTION        0.25          0.051        1.089
  YS02001658           JUNCTION        5.60          1.300        0.000
  YS02001661           JUNCTION        0.23          1.327        0.063
  YS02001622           JUNCTION        5.79          0.620        0.000
  YS02001633           JUNCTION        6.12          0.986        0.074
  YS02001649           JUNCTION        6.14          1.050        0.000
  YS02001757           JUNCTION        6.19          1.171        0.039
  YS02001895           JUNCTION        0.85          0.331        0.419
  YS02001625           JUNCTION        6.09          0.780        0.000
  YS02163301           JUNCTION        6.11          0.919        0.111
  YS02163601           JUNCTION        6.15          1.070        0.010
  YS02164001           JUNCTION        6.12          0.996        0.104
  YS02001647           JUNCTION        6.06          0.811        0.089
  YS02006553           JUNCTION        1.75          0.760        0.430
  YS02006561           JUNCTION        0.59          0.125        1.025
  YS02006556           JUNCTION        1.42          0.671        0.679
  YS02006558           JUNCTION        1.38          0.648        0.752
  YS02001783           JUNCTION        1.41          0.542        1.058
  YS02001784           JUNCTION        1.47          0.515        0.975
  YS02001786           JUNCTION        1.42          0.716        0.714
  YS02001788           JUNCTION        1.40          0.830        0.650
  YS02001790           JUNCTION        3.04          0.796        0.361
  YS02001791           JUNCTION        3.12          0.586        1.334
  YS02001793           JUNCTION        3.29          0.825        1.775
  
  
  *********************
  Node Flooding Summary
  *********************
  
  Flooding refers to all water that overflows a node, whether it ponds or not.
  --------------------------------------------------------------------------
                                                             Total   Maximum
                                 Maximum   Time of Max       Flood    Ponded
                        Hours       Rate    Occurrence      Volume     Depth
  Node                 Flooded       LPS   days hr:min    10^6 ltr    Meters
  --------------------------------------------------------------------------
  YS02001748              0.01    147.79      0  02:09       0.000     0.000
  YS02001751              0.01    143.36      0  02:00       0.000     0.000
  YS02001779              2.35    324.15      0  02:54       0.734     0.000
  YS02001619              0.01     36.15      0  02:06       0.000     0.000
  YS02001629              0.01     35.90      0  02:06       0.001     0.000
  YS02001644              3.73   1029.16      0  02:51       5.437     0.000
  YS02001652              0.01     23.87      0  02:04       0.000     0.000
  YS02001655              0.01    309.74      0  02:04       0.001     0.000
  YS02001658              0.01    390.63      0  02:06       0.001     0.000
  YS02001622              0.01     55.04      0  02:06       0.000     0.000
  YS02001649              0.08     41.31      0  02:30       0.004     0.000
  YS02001625              0.87     47.71      0  02:32       0.093     0.000
  JK-storage              2.66    847.81      0  02:50       3.193     0.000
  XR-storage              4.51    455.06      0  03:00       2.874     0.000
  
  
  **********************
  Storage Volume Summary
  **********************
  
  --------------------------------------------------------------------------------------------------
                         Average     Avg  Evap Exfil       Maximum     Max    Time of Max    Maximum
                          Volume    Pcnt  Pcnt  Pcnt        Volume    Pcnt     Occurrence    Outflow
  Storage Unit           1000 m3    Full  Loss  Loss       1000 m3    Full    days hr:min        LPS
  --------------------------------------------------------------------------------------------------
  JK-storage               0.181      62     0     0         0.291     100       0  02:02     616.83
  CC-storage               3.054      19     0     0         3.852      25       0  02:49     400.00
  XR-storage               0.873      94     0     0         0.926     100       0  02:02     380.00
  
  
  ***********************
  Outfall Loading Summary
  ***********************
  
  -----------------------------------------------------------
                         Flow       Avg       Max       Total
                         Freq      Flow      Flow      Volume
  Outfall Node           Pcnt       LPS       LPS    10^6 ltr
  -----------------------------------------------------------
  WSC                   99.99    624.52    944.71      16.014
  3                     85.62    211.20    530.30       4.008
  4                     48.82     57.70    221.99       0.687
  5                      0.00      0.00      0.00       0.000
  -----------------------------------------------------------
  System                58.61    893.42   1470.10      20.709
  
  
  ********************
  Link Flow Summary
  ********************
  
  -----------------------------------------------------------------------------
                                 Maximum  Time of Max   Maximum    Max/    Max/
                                  |Flow|   Occurrence   |Veloc|    Full    Full
  Link                 Type          LPS  days hr:min     m/sec    Flow   Depth
  -----------------------------------------------------------------------------
  WS02003066WSF200     CONDUIT    658.65     0  01:57      2.90    0.11    0.26
  WS02006287WS02006284 CONDUIT    366.21     0  01:42      1.96    0.17    0.29
  WS02006284WS02006280 CONDUIT    366.28     0  01:42      2.20    0.15    0.26
  WS02006280WS02006229 CONDUIT    366.28     0  01:42      3.55    0.08    0.19
  WS02006229WS02006228 CONDUIT    646.92     0  01:48      1.29    2.14    1.00
  WS02006256WS02006235 CONDUIT    166.25     0  00:01      2.58    1.76    1.00
  WS02006253WS02006251 CONDUIT     82.41     0  01:43      0.58    0.25    1.00
  WS02006252WS02006251 CONDUIT    400.69     0  05:00      3.19    1.47    1.00
  WS02006251WS02006249 CONDUIT    470.11     0  01:50      1.23    1.36    0.97
  WS02006249WS02006248 CONDUIT    352.81     0  05:20      1.21    1.93    0.92
  WS02006248WS02006247 CONDUIT    348.24     0  06:11      1.20    0.76    0.97
  WS02006247WS02006245 CONDUIT    344.26     0  06:11      1.16    2.73    1.00
  WS02006245WS02006243 CONDUIT    340.41     0  06:11      1.24    1.01    1.00
  WS02006243WS02006242 CONDUIT    337.64     0  04:51      1.03    0.72    1.00
  WS02006242WS02006240 CONDUIT    340.23     0  04:50      0.95    1.35    1.00
  WS02006240WS02006239 CONDUIT    345.42     0  04:50      0.98    1.09    1.00
  WS02006239WS02006238 CONDUIT    345.46     0  04:50      0.91    1.11    1.00
  WS02006238WS02006235 CONDUIT    345.51     0  04:51      1.25    0.77    1.00
  WS02006235WS02006234 CONDUIT    392.12     0  05:23      1.05    4.14    1.00
  WS02006234WS02006232 CONDUIT    390.45     0  04:41      1.13    0.79    1.00
  WS02006232WS02006231 CONDUIT    390.38     0  04:42      1.07    0.82    1.00
  WS02006231WS02006230 CONDUIT    388.93     0  04:42      1.36    5.90    1.00
  WS02006230WS02006229 CONDUIT    399.07     0  04:43      1.04    8.88    1.00
  WS02006228WS02006109 CONDUIT    646.91     0  01:49      1.29    2.83    1.00
  WS02006116WS02004401 CONDUIT    661.02     0  01:55      0.86    0.91    0.96
  WS02006115WS02006116 CONDUIT    661.79     0  01:55      0.98    0.85    0.89
  WS02006113WS02006111 CONDUIT    683.31     0  01:49      2.61    0.82    0.53
  WS02006112WS02006115 CONDUIT    664.65     0  01:46      0.90    0.39    0.94
  WS02006111WS02006112 CONDUIT    650.64     0  01:55      1.75    0.31    0.71
  WS02006110WS02006113 CONDUIT    649.91     0  01:49      1.48    0.59    0.82
  WS02006109WS02006110 CONDUIT    648.12     0  01:48      1.29    1.25    1.00
  WS02004411WS02004412 CONDUIT    658.75     0  01:56      1.03    0.94    0.76
  WS02004401WS02004402 CONDUIT    660.39     0  01:55      0.85    0.79    0.98
  WS02004413WS02003067 CONDUIT    658.54     0  01:57      1.24    0.28    0.64
  WS02004412WS02004413 CONDUIT    658.62     0  01:57      0.94    0.44    0.84
  WS02004410WS02004411 CONDUIT    658.79     0  01:56      1.03    0.90    0.76
  WS02004409WS02004410 CONDUIT    658.90     0  01:56      1.06    0.85    0.75
  WS02004407WS02004409 CONDUIT    659.11     0  01:55      1.60    0.23    0.54
  WS02004406WS02004407 CONDUIT    659.48     0  01:55      1.19    0.29    0.66
  WS02004405WS02004406 CONDUIT    659.25     0  01:55      0.84    1.30    1.00
  WS02004404WS02004405 CONDUIT    659.06     0  01:55      0.84    6.46    1.00
  WS02004403WS02004404 CONDUIT    658.82     0  01:55      0.84    0.48    1.00
  WS02004402WS02004403 CONDUIT    659.90     0  01:55      0.84    0.95    0.99
  WS02004139WS02001211 CONDUIT    379.41     0  07:28      0.81    0.48    0.59
  WS02004138WS02004139 CONDUIT    380.00     0  07:22      3.33    0.08    0.44
  WS02003067WS02003066 CONDUIT    658.62     0  01:57      1.35    0.21    0.45
  WS02001213WS02003059 CONDUIT    384.33     0  07:31      0.80    0.63    0.77
  WS02001212WS02001213 CONDUIT    385.19     0  07:30      1.19    0.59    0.47
  WS02001211WS02001212 CONDUIT    385.86     0  07:30      0.74    0.29    0.64
  WS02003072WS02003073 CONDUIT    943.16     0  02:33      1.73    2.04    0.49
  WS02003069WS02003072 CONDUIT    943.38     0  02:33      1.62    0.45    0.51
  WS02003060WS02003069 CONDUIT    943.40     0  02:32      1.87    0.37    0.46
  WS02003059WS02003060 CONDUIT    383.45     0  07:31      0.82    0.25    0.66
  HS02004901HS02004770 CONDUIT     17.82     0  01:38      0.06    0.07    0.40
  HS02004876HS02004881 CONDUIT     67.33     0  01:43      0.89    0.72    0.11
  HS02004870HS02004876 CONDUIT     54.05     0  01:43      0.61    0.04    0.13
  HS02004842HS02004848 CONDUIT     10.09     0  01:58      0.05    0.01    0.30
  HS02004837HS02004842 CONDUIT     10.33     0  02:00      0.41    0.01    0.31
  HS02004830HS02004837 CONDUIT     38.21     0  01:51      0.54    0.04    0.10
  HS02004824HS02004830 CONDUIT     38.37     0  01:52      0.57    0.05    0.10
  HS02004817HS02004824 CONDUIT     71.73     0  01:54      0.22    0.03    0.46
  HS02004770HS02004777 CONDUIT     92.16     0  01:38      0.32    0.17    0.41
  HS02004799HS02004480 CONDUIT    230.85     0  01:40      0.78    0.29    0.42
  HS02004792HS02004799 CONDUIT    210.29     0  01:40      0.89    0.13    0.34
  HS02004788HS02004792 CONDUIT    122.00     0  01:40      1.02    0.08    0.17
  HS02004785HS02004788 CONDUIT     92.09     0  01:40      0.67    0.69    0.20
  HS02004777HS02004785 CONDUIT     91.99     0  01:39      0.39    0.11    0.34
  HS02004480HS02004478 CONDUIT    273.63     0  01:41      1.21    1.15    0.32
  HS02004479HS02004480 CONDUIT     43.47     0  01:42      0.30    0.04    0.41
  HS02004862HS02004870 CONDUIT     40.54     0  01:45      0.62    0.04    0.09
  HS02004848HS02004852 CONDUIT     17.93     0  01:51      0.42    0.02    0.06
  HS02004856HS02004862 CONDUIT     27.96     0  01:44      0.46    0.03    0.09
  HS02004852HS02004856 CONDUIT     17.92     0  01:52      0.22    0.02    0.12
  HS02004802HS02004478 CONDUIT     96.20     0  01:53      0.42    0.08    0.34
  HS02004478WS02006287 CONDUIT    366.22     0  01:42      1.67    0.10    0.24
  HS02004817HS02004807 CONDUIT     72.77     0  01:55      0.17    0.04    0.61
  HS02004807HS02004802 CONDUIT     95.92     0  01:53      0.36    0.18    0.39
  YS02001759YS02001757 CONDUIT    542.47     0  02:14      0.69    0.39    1.00
  YS02001762YS02001759 CONDUIT    280.75     0  02:14      0.36    0.32    1.00
  YS02001765YS02001762 CONDUIT    279.78     0  02:14      0.36    0.26    1.00
  YS02001770YS02001767 CONDUIT    276.96     0  02:14      0.42    1.10    1.00
  YS02001774YS02001770 CONDUIT    323.97     0  02:54      0.41    0.21    1.00
  YS02001779YS02001774 CONDUIT    324.29     0  02:54      0.41    0.16    1.00
  YS02001649YS02001757 CONDUIT    849.84     0  02:22      1.08    0.52    1.00
  YS02001767YS02001765 CONDUIT    278.62     0  02:14      0.38    0.35    1.00
  YS02006561YS02001783 CONDUIT    898.88     0  02:30      2.11    0.47    1.00
  YS02001783YS02001784 CONDUIT    898.97     0  02:30      1.79    1.24    1.00
  YS02001784YS02001785 CONDUIT    899.92     0  02:30      1.79    2.09    1.00
  YS02001788YS02001790 CONDUIT    900.04     0  02:30      2.32    0.66    1.00
  YS02001790YS02001791 CONDUIT    900.26     0  02:30      2.84    0.98    1.00
  YS02001791YS02001793 CONDUIT    900.31     0  02:30      5.64    0.39    1.00
  YS02001910YS02001907 CONDUIT    319.32     0  03:05      0.49    0.18    1.00
  YS02001786YS02001788 CONDUIT    900.05     0  02:30      2.23    1.73    1.00
  YS02001915YS02001910 CONDUIT    319.27     0  03:05      0.58    0.16    1.00
  YS02001918YS02001915 CONDUIT    144.04     0  03:07      0.44    0.08    1.00
  YS02001923YS02001920 CONDUIT    130.02     0  02:51      0.68    0.06    0.90
  YS02001926YS02001923 CONDUIT    115.78     0  02:51      0.78    0.17    0.60
  YS02001929YS02001926 CONDUIT    123.47     0  02:52      0.83    0.06    0.49
  YS02001920YS02001918 CONDUIT    134.07     0  02:53      0.67    0.13    1.00
  YS02001629YS02163301 CONDUIT    229.15     0  02:04      0.29    0.28    1.00
  YS02001619YS02001622 CONDUIT    200.44     0  02:00      0.73    0.30    1.00
  YS02001622YS02001625 CONDUIT    214.69     0  02:01      0.36    0.11    1.00
  YS02001625YS02001629 CONDUIT    214.67     0  02:01      0.30    0.10    1.00
  YS02163301YS02001633 CONDUIT    229.06     0  02:04      0.29    0.22    1.00
  YS02163601YS02164001 CONDUIT    416.67     0  02:04      0.53    0.37    1.00
  YS02164001YS02001641 CONDUIT    416.03     0  02:04      0.53    0.57    1.00
  YS02001641YS02001644 CONDUIT    415.82     0  02:04      0.53    1.34    1.00
  YS02001647YS02001649 CONDUIT    609.10     0  02:22      0.78    0.32    1.00
  YS02006553YS02006556 CONDUIT    619.40     0  02:34      0.79    0.53    1.00
  YS02006556YS02006558 CONDUIT    619.78     0  02:33      0.79    0.49    1.00
  YSB6556YSB1171       CONDUIT     24.43     0  01:43      0.09    0.03    0.68
  YS02001907YS02006553 CONDUIT    619.40     0  02:32      0.69    0.73    1.00
  YS02006558YS02006561 CONDUIT    899.02     0  02:30      3.22    1.99    1.00
  YS02001633YS02163601 CONDUIT    416.75     0  02:04      0.53    0.44    1.00
  YS02001644YS02001647 CONDUIT    608.97     0  02:22      0.78    0.36    1.00
  YS02001745YS02001748 CONDUIT    551.55     0  02:10      1.64    0.21    0.94
  YS02001748YS02001751 CONDUIT    412.00     0  02:00      1.22    0.21    1.00
  YS02001751YS02001754 CONDUIT    242.36     0  02:11      1.05    0.12    1.00
  YS02001754YS02001757 CONDUIT    243.48     0  01:59      0.33    0.10    1.00
  YS02001882YS02001884 CONDUIT     15.73     0  02:04      0.15    0.02    1.00
  YS02001884YS02001887 CONDUIT     28.35     0  02:04      0.11    0.04    1.00
  YS02001890YS02001895 CONDUIT    342.29     0  02:12      0.47    0.16    1.00
  YS02001895YS02001898 CONDUIT    348.07     0  02:12      0.59    0.60    1.00
  YS02001898YS02001901 CONDUIT    339.62     0  02:12      0.52    0.22    1.00
  YS02001901YS02001904 CONDUIT    339.38     0  02:12      0.48    0.53    1.00
  YS02001904YS02001907 CONDUIT    337.84     0  02:12      0.43    0.12    1.00
  YS02001887YS02001890 CONDUIT    342.64     0  02:12      0.44    0.59    1.00
  YS02001652YS02001649 CONDUIT    293.84     0  02:06      0.61    0.15    1.00
  YS02001655YS02001652 CONDUIT    293.67     0  02:06      1.11    0.14    1.00
  YS02001658YS02001655 CONDUIT    448.51     0  01:57      1.42    0.19    1.00
  YS02001661YS02001658 CONDUIT    655.91     0  02:05      1.73    0.26    1.00
  YS02001664YS02001661 CONDUIT    644.49     0  02:24      1.63    0.20    0.72
  YSB1154YSB6556       CONDUIT     24.02     0  01:41      0.15    0.04    0.57
  YSB1174YSB1171       CONDUIT     20.01     0  01:36      0.07    0.03    0.68
  YSB1171HS02004479    CONDUIT     43.16     0  01:41      0.54    0.03    0.54
  HS02004881HS02006253 CONDUIT     74.61     0  01:43      2.03    0.01    0.31
  YS02001793JiankangQianchi CONDUIT    929.15     0  01:56     10.29    0.07    1.00
  YS02001757CaochengTiaoxuchi CONDUIT   1580.24     0  02:21      2.59    0.69    1.00
  WSF200WS02003060     CONDUIT    658.79     0  01:57      1.99    0.15    0.35
  1                    CONDUIT    944.71     0  02:34      3.28    0.33    0.39
  2                    CONDUIT    221.99     0  01:50      5.99    0.53    0.52
  3                    CONDUIT    530.30     0  02:00     10.41    0.84    0.71
  4                    CONDUIT      0.00     0  00:00      0.00    0.00    0.00
  CC-Pump-1            PUMP       200.00     0  03:00              1.00
  CC-Pump-2            PUMP       200.00     0  01:35              1.00
  JK-Pump-1            PUMP       300.00     0  00:00              1.00
  JK-Pump-2            PUMP       300.00     0  01:40              1.00
  XR-Pump-1            PUMP        95.00     0  00:40              1.00
  XR-Pump-2            PUMP        95.00     0  00:00              1.00
  XR-Pump-3            PUMP        95.00     0  00:00              1.00
  XR-Pump-4            PUMP        95.00     0  00:00              1.00
  
  
  ***************************
  Flow Classification Summary
  ***************************
  
  -------------------------------------------------------------------------------------
                      Adjusted    ---------- Fraction of Time in Flow Class ---------- 
                       /Actual         Up    Down  Sub   Sup   Up    Down  Norm  Inlet 
  Conduit               Length    Dry  Dry   Dry   Crit  Crit  Crit  Crit  Ltd   Ctrl  
  -------------------------------------------------------------------------------------
  WS02003066WSF200        1.00   0.06  0.00  0.00  0.00  0.94  0.00  0.00  0.63  0.00
  WS02006287WS02006284    1.00   0.04  0.01  0.00  0.59  0.37  0.00  0.00  0.72  0.00
  WS02006284WS02006280    1.00   0.04  0.00  0.00  0.00  0.00  0.00  0.96  0.00  0.00
  WS02006280WS02006229    1.00   0.04  0.00  0.00  0.00  0.00  0.00  0.96  0.00  0.00
  WS02006229WS02006228    1.00   0.00  0.00  0.00  0.99  0.00  0.00  0.01  0.00  0.00
  WS02006256WS02006235    1.00   0.00  0.00  0.00  1.00  0.00  0.00  0.00  0.00  0.00
  WS02006253WS02006251    1.00   0.03  0.01  0.00  0.96  0.00  0.00  0.00  0.00  0.00
  WS02006252WS02006251    1.00   0.05  0.00  0.00  0.00  0.00  0.95  0.00  0.00  0.00
  WS02006251WS02006249    1.00   0.00  0.00  0.00  1.00  0.00  0.00  0.00  0.16  0.00
  WS02006249WS02006248    1.00   0.00  0.02  0.00  0.94  0.00  0.04  0.00  0.00  0.00
  WS02006248WS02006247    1.00   0.02  0.00  0.00  0.98  0.00  0.00  0.00  0.05  0.00
  WS02006247WS02006245    1.00   0.02  0.00  0.00  0.98  0.00  0.00  0.00  0.00  0.00
  WS02006245WS02006243    1.00   0.01  0.00  0.00  0.96  0.00  0.00  0.02  0.01  0.00
  WS02006243WS02006242    1.00   0.01  0.00  0.00  0.99  0.00  0.00  0.00  0.16  0.00
  WS02006242WS02006240    1.00   0.00  0.00  0.00  0.99  0.00  0.00  0.00  0.00  0.00
  WS02006240WS02006239    1.00   0.00  0.00  0.00  0.97  0.00  0.00  0.02  0.01  0.00
  WS02006239WS02006238    1.00   0.00  0.00  0.00  1.00  0.00  0.00  0.00  0.00  0.00
  WS02006238WS02006235    1.00   0.00  0.00  0.00  1.00  0.00  0.00  0.00  0.00  0.00
  WS02006235WS02006234    1.00   0.00  0.00  0.00  0.97  0.00  0.03  0.00  0.00  0.00
  WS02006234WS02006232    1.00   0.00  0.00  0.00  1.00  0.00  0.00  0.00  0.00  0.00
  WS02006232WS02006231    1.00   0.00  0.00  0.00  0.99  0.00  0.00  0.00  0.00  0.00
  WS02006231WS02006230    1.00   0.00  0.00  0.00  0.77  0.00  0.23  0.00  0.00  0.00
  WS02006230WS02006229    1.00   0.00  0.00  0.00  0.99  0.00  0.00  0.01  0.01  0.00
  WS02006228WS02006109    1.00   0.00  0.00  0.00  1.00  0.00  0.00  0.00  0.00  0.00
  WS02006116WS02004401    1.00   0.02  0.00  0.00  0.98  0.00  0.00  0.00  0.00  0.00
  WS02006115WS02006116    1.00   0.02  0.00  0.00  0.97  0.00  0.00  0.01  0.00  0.00
  WS02006113WS02006111    1.00   0.02  0.00  0.00  0.00  0.98  0.00  0.00  0.11  0.00
  WS02006112WS02006115    1.00   0.02  0.00  0.00  0.98  0.00  0.00  0.00  0.00  0.00
  WS02006111WS02006112    1.00   0.02  0.00  0.00  0.98  0.00  0.00  0.00  0.92  0.00
  WS02006110WS02006113    1.00   0.01  0.01  0.00  0.98  0.00  0.00  0.00  0.00  0.00
  WS02006109WS02006110    1.00   0.00  0.01  0.00  0.98  0.00  0.01  0.00  0.00  0.00
  WS02004411WS02004412    1.00   0.04  0.00  0.00  0.96  0.00  0.00  0.00  0.00  0.00
  WS02004401WS02004402    1.00   0.02  0.00  0.00  0.98  0.00  0.00  0.00  0.00  0.00
  WS02004413WS02003067    1.00   0.04  0.01  0.00  0.00  0.00  0.95  0.00  0.00  0.00
  WS02004412WS02004413    1.00   0.04  0.00  0.00  0.96  0.00  0.00  0.00  0.03  0.00
  WS02004410WS02004411    1.00   0.03  0.00  0.00  0.97  0.00  0.00  0.00  0.03  0.00
  WS02004409WS02004410    1.00   0.03  0.00  0.00  0.97  0.00  0.00  0.00  0.00  0.00
  WS02004407WS02004409    1.00   0.03  0.00  0.00  0.96  0.00  0.00  0.00  0.89  0.00
  WS02004406WS02004407    1.00   0.00  0.03  0.00  0.97  0.00  0.00  0.00  0.00  0.00
  WS02004405WS02004406    1.00   0.00  0.00  0.00  1.00  0.00  0.00  0.00  0.01  0.00
  WS02004404WS02004405    1.00   0.00  0.00  0.00  1.00  0.00  0.00  0.00  0.00  0.00
  WS02004403WS02004404    1.00   0.00  0.02  0.00  0.98  0.00  0.00  0.00  0.01  0.00
  WS02004402WS02004403    1.00   0.02  0.00  0.00  0.98  0.00  0.00  0.00  0.00  0.00
  WS02004139WS02001211    1.00   0.00  0.00  0.00  1.00  0.00  0.00  0.00  0.00  0.00
  WS02004138WS02004139    1.00   0.00  0.00  0.00  0.99  0.01  0.00  0.00  1.00  0.00
  WS02003067WS02003066    1.00   0.05  0.00  0.00  0.94  0.00  0.00  0.00  0.00  0.00
  WS02001213WS02003059    1.00   0.00  0.00  0.00  0.99  0.00  0.00  0.00  0.00  0.00
  WS02001212WS02001213    1.00   0.00  0.00  0.00  0.92  0.00  0.08  0.00  0.00  0.00
  WS02001211WS02001212    1.00   0.00  0.00  0.00  1.00  0.00  0.00  0.00  0.00  0.00
  WS02003072WS02003073    1.00   0.00  0.00  0.00  0.00  0.00  0.00  1.00  0.00  0.00
  WS02003069WS02003072    1.00   0.00  0.00  0.00  0.99  0.01  0.00  0.00  0.19  0.00
  WS02003060WS02003069    1.00   0.00  0.00  0.00  0.98  0.02  0.00  0.00  0.09  0.00
  WS02003059WS02003060    1.00   0.00  0.00  0.00  1.00  0.00  0.00  0.00  0.01  0.00
  HS02004901HS02004770    1.00   0.04  0.00  0.00  0.96  0.00  0.00  0.00  0.00  0.00
  HS02004876HS02004881    1.00   0.02  0.00  0.00  0.89  0.09  0.00  0.00  0.00  0.00
  HS02004870HS02004876    1.00   0.00  0.00  0.00  0.99  0.00  0.00  0.00  0.95  0.00
  HS02004842HS02004848    1.00   0.00  0.04  0.00  0.96  0.00  0.00  0.00  0.58  0.00
  HS02004837HS02004842    1.00   0.00  0.00  0.00  0.99  0.01  0.00  0.00  0.11  0.00
  HS02004830HS02004837    1.00   0.00  0.00  0.00  1.00  0.00  0.00  0.00  0.99  0.00
  HS02004824HS02004830    1.00   0.00  0.00  0.00  1.00  0.00  0.00  0.00  0.00  0.00
  HS02004817HS02004824    1.00   0.00  0.00  0.00  1.00  0.00  0.00  0.00  1.00  0.00
  HS02004770HS02004777    1.00   0.00  0.04  0.00  0.96  0.00  0.00  0.00  0.02  0.00
  HS02004799HS02004480    1.00   0.00  0.02  0.00  0.96  0.00  0.02  0.00  0.00  0.00
  HS02004792HS02004799    1.00   0.00  0.00  0.00  0.99  0.01  0.00  0.00  0.98  0.00
  HS02004788HS02004792    1.00   0.00  0.00  0.00  0.99  0.01  0.00  0.00  0.98  0.00
  HS02004785HS02004788    1.00   0.00  0.00  0.00  1.00  0.00  0.00  0.00  0.00  0.00
  HS02004777HS02004785    1.00   0.00  0.00  0.00  1.00  0.00  0.00  0.00  0.12  0.00
  HS02004480HS02004478    1.00   0.04  0.00  0.00  0.64  0.00  0.00  0.32  0.00  0.00
  HS02004479HS02004480    1.00   0.02  0.00  0.00  0.98  0.00  0.00  0.00  0.11  0.00
  HS02004862HS02004870    1.00   0.00  0.00  0.00  1.00  0.00  0.00  0.00  0.03  0.00
  HS02004848HS02004852    1.00   0.04  0.00  0.00  0.96  0.00  0.00  0.00  0.78  0.00
  HS02004856HS02004862    1.00   0.00  0.04  0.00  0.96  0.00  0.00  0.00  0.83  0.00
  HS02004852HS02004856    1.00   0.04  0.00  0.00  0.96  0.00  0.00  0.00  0.86  0.00
  HS02004802HS02004478    1.00   0.04  0.00  0.00  0.96  0.00  0.00  0.00  0.02  0.00
  HS02004478WS02006287    1.00   0.04  0.00  0.00  0.74  0.22  0.00  0.00  0.69  0.00
  HS02004817HS02004807    1.00   0.00  0.04  0.00  0.96  0.00  0.00  0.00  0.01  0.00
  HS02004807HS02004802    1.00   0.04  0.00  0.00  0.96  0.00  0.00  0.00  0.00  0.00
  YS02001759YS02001757    1.00   0.00  0.00  0.00  1.00  0.00  0.00  0.00  0.16  0.00
  YS02001762YS02001759    1.00   0.00  0.00  0.00  1.00  0.00  0.00  0.00  0.03  0.00
  YS02001765YS02001762    1.00   0.00  0.00  0.00  1.00  0.00  0.00  0.00  0.13  0.00
  YS02001770YS02001767    1.00   0.00  0.00  0.00  1.00  0.00  0.00  0.00  0.00  0.00
  YS02001774YS02001770    1.00   0.00  0.04  0.00  0.96  0.00  0.00  0.00  0.03  0.00
  YS02001779YS02001774    1.00   0.00  0.00  0.00  1.00  0.00  0.00  0.00  0.17  0.00
  YS02001649YS02001757    1.00   0.00  0.00  0.00  1.00  0.00  0.00  0.00  0.16  0.00
  YS02001767YS02001765    1.00   0.00  0.00  0.00  1.00  0.00  0.00  0.00  0.00  0.00
  YS02006561YS02001783    1.00   0.05  0.00  0.00  0.49  0.46  0.00  0.00  0.57  0.00
  YS02001783YS02001784    1.00   0.00  0.05  0.00  0.95  0.00  0.00  0.00  0.00  0.00
  YS02001784YS02001785    1.00   0.00  0.00  0.00  1.00  0.00  0.00  0.00  0.16  0.00
  YS02001788YS02001790    1.00   0.00  0.00  0.00  0.54  0.46  0.00  0.00  0.51  0.00
  YS02001790YS02001791    1.00   0.00  0.00  0.00  0.51  0.49  0.00  0.00  0.37  0.00
  YS02001791YS02001793    1.00   0.00  0.00  0.00  0.56  0.44  0.00  0.00  0.05  0.00
  YS02001910YS02001907    1.00   0.00  0.00  0.00  0.98  0.00  0.00  0.02  0.12  0.00
  YS02001786YS02001788    1.00   0.00  0.00  0.00  0.52  0.48  0.00  0.00  0.00  0.00
  YS02001915YS02001910    1.00   0.00  0.00  0.00  0.99  0.01  0.00  0.00  0.14  0.00
  YS02001918YS02001915    1.00   0.00  0.01  0.00  0.98  0.01  0.00  0.00  0.57  0.00
  YS02001923YS02001920    1.00   0.00  0.00  0.00  1.00  0.00  0.00  0.00  0.83  0.00
  YS02001926YS02001923    1.00   0.00  0.03  0.00  0.15  0.00  0.82  0.00  0.00  0.00
  YS02001929YS02001926    1.00   0.00  0.04  0.00  0.96  0.00  0.00  0.00  0.79  0.00
  YS02001920YS02001918    1.00   0.00  0.01  0.00  0.99  0.00  0.00  0.00  0.00  0.00
  YS02001629YS02163301    1.00   0.04  0.00  0.00  0.96  0.00  0.00  0.00  0.00  0.00
  YS02001619YS02001622    1.00   0.04  0.00  0.00  0.96  0.00  0.00  0.00  0.00  0.00
  YS02001622YS02001625    1.00   0.04  0.00  0.00  0.96  0.00  0.00  0.00  0.04  0.00
  YS02001625YS02001629    1.00   0.04  0.01  0.00  0.94  0.00  0.01  0.00  0.00  0.00
  YS02163301YS02001633    1.00   0.00  0.04  0.00  0.96  0.00  0.00  0.00  0.00  0.00
  YS02163601YS02164001    1.00   0.00  0.03  0.00  0.97  0.00  0.00  0.00  0.00  0.00
  YS02164001YS02001641    1.00   0.01  0.02  0.00  0.97  0.00  0.00  0.00  0.06  0.00
  YS02001641YS02001644    1.00   0.00  0.01  0.00  0.99  0.00  0.00  0.00  0.00  0.00
  YS02001647YS02001649    1.00   0.00  0.04  0.00  0.95  0.00  0.00  0.00  0.01  0.00
  YS02006553YS02006556    1.00   0.01  0.00  0.00  0.99  0.00  0.00  0.00  0.03  0.00
  YS02006556YS02006558    1.00   0.00  0.00  0.00  1.00  0.00  0.00  0.00  0.00  0.00
  YSB6556YSB1171          1.00   0.03  0.01  0.00  0.96  0.00  0.00  0.00  0.00  0.00
  YS02001907YS02006553    1.00   0.00  0.02  0.00  0.98  0.00  0.00  0.00  0.00  0.00
  YS02006558YS02006561    1.00   0.05  0.00  0.00  0.20  0.76  0.00  0.00  0.50  0.00
  YS02001633YS02163601    1.00   0.00  0.01  0.00  0.99  0.00  0.00  0.00  0.15  0.00
  YS02001644YS02001647    1.00   0.00  0.05  0.00  0.95  0.00  0.00  0.00  0.00  0.00
  YS02001745YS02001748    1.00   0.00  0.00  0.00  0.92  0.00  0.00  0.07  0.03  0.00
  YS02001748YS02001751    1.00   0.00  0.00  0.00  0.98  0.02  0.00  0.00  0.14  0.00
  YS02001751YS02001754    1.00   0.00  0.00  0.00  0.95  0.00  0.00  0.05  0.01  0.00
  YS02001754YS02001757    1.00   0.00  0.00  0.00  0.99  0.01  0.00  0.00  0.17  0.00
  YS02001882YS02001884    1.00   0.04  0.00  0.00  0.96  0.00  0.00  0.00  0.00  0.00
  YS02001884YS02001887    1.00   0.03  0.01  0.00  0.96  0.00  0.00  0.00  0.00  0.00
  YS02001890YS02001895    1.00   0.00  0.04  0.00  0.96  0.00  0.00  0.00  0.00  0.00
  YS02001895YS02001898    1.00   0.04  0.00  0.00  0.95  0.00  0.00  0.00  0.00  0.00
  YS02001898YS02001901    1.00   0.04  0.00  0.00  0.96  0.00  0.00  0.00  0.01  0.00
  YS02001901YS02001904    1.00   0.04  0.00  0.00  0.96  0.00  0.00  0.00  0.00  0.00
  YS02001904YS02001907    1.00   0.00  0.04  0.00  0.96  0.00  0.00  0.00  0.00  0.00
  YS02001887YS02001890    1.00   0.00  0.00  0.00  0.98  0.00  0.02  0.00  0.00  0.00
  YS02001652YS02001649    1.00   0.00  0.00  0.00  1.00  0.00  0.00  0.00  0.15  0.00
  YS02001655YS02001652    1.00   0.00  0.00  0.00  0.95  0.00  0.00  0.05  0.01  0.00
  YS02001658YS02001655    1.00   0.00  0.04  0.00  0.94  0.02  0.00  0.00  0.02  0.00
  YS02001661YS02001658    1.00   0.04  0.00  0.00  0.92  0.04  0.00  0.00  0.03  0.00
  YS02001664YS02001661    1.00   0.04  0.00  0.00  0.88  0.08  0.00  0.00  0.16  0.00
  YSB1154YSB6556          1.00   0.04  0.00  0.00  0.96  0.00  0.00  0.00  0.01  0.00
  YSB1174YSB1171          1.00   0.03  0.01  0.00  0.97  0.00  0.00  0.00  0.00  0.00
  YSB1171HS02004479       1.00   0.03  0.00  0.00  0.97  0.00  0.00  0.00  0.10  0.00
  HS02004881HS02006253    1.00   0.03  0.00  0.00  0.85  0.02  0.00  0.11  0.72  0.00
  YS02001793JiankangQianchi    1.00   0.00  0.00  0.00  0.75  0.24  0.00  0.00  0.18  0.00
  YS02001757CaochengTiaoxuchi    1.00   0.00  0.05  0.00  0.89  0.05  0.00  0.00  0.00  0.00
  WSF200WS02003060        1.00   0.00  0.06  0.00  0.59  0.36  0.00  0.00  0.09  0.00
  1                       1.00   0.00  0.00  0.00  0.00  1.00  0.00  0.00  0.40  0.00
  2                       1.00   0.51  0.00  0.00  0.00  0.49  0.00  0.00  0.10  0.00
  3                       1.00   0.14  0.00  0.00  0.00  0.86  0.00  0.00  0.23  0.00
  4                       1.00   1.00  0.00  0.00  0.00  0.00  0.00  0.00  0.00  0.00
  
  
  *************************
  Conduit Surcharge Summary
  *************************
  
  ----------------------------------------------------------------------------
                                                           Hours        Hours 
                         --------- Hours Full --------   Above Full   Capacity
  Conduit                Both Ends  Upstream  Dnstream   Normal Flow   Limited
  ----------------------------------------------------------------------------
  WS02006229WS02006228        2.34      2.80      2.34      5.70         2.33
  WS02006256WS02006235        6.39      6.40      7.71      2.48         0.01
  WS02006253WS02006251        0.01      0.01      0.07      0.01         0.01
  WS02006252WS02006251        1.64      1.64      2.83      2.51         0.01
  WS02006251WS02006249        0.01      0.02      0.01      1.74         0.01
  WS02006249WS02006248        0.01      0.01      0.01      5.41         0.01
  WS02006248WS02006247        0.01      0.01      0.07      0.01         0.01
  WS02006247WS02006245        0.04      0.12      0.04      5.72         0.04
  WS02006245WS02006243        0.10      0.10      0.20      0.01         0.01
  WS02006243WS02006242        0.27      0.27      1.86      0.01         0.01
  WS02006242WS02006240        0.97      0.97      2.41      2.55         0.01
  WS02006240WS02006239        1.13      1.13      1.26      0.33         0.01
  WS02006239WS02006238        2.13      2.13      2.32      0.46         0.12
  WS02006238WS02006235        2.06      2.06      2.73      0.01         0.01
  WS02006235WS02006234        1.06      1.06      1.82      6.40         0.01
  WS02006234WS02006232        1.31      1.31      2.83      0.01         0.01
  WS02006232WS02006231        0.68      0.68      2.83      0.01         0.01
  WS02006231WS02006230        0.47      0.47      0.72      6.40         0.01
  WS02006230WS02006229        4.10      5.44      4.10      6.48         4.10
  WS02006228WS02006109        2.52      3.34      2.52      6.18         2.52
  WS02006112WS02006115        0.01      0.01      1.15      0.01         0.01
  WS02006111WS02006112        0.01      0.01      5.89      0.01         0.01
  WS02006110WS02006113        0.01      0.01      3.06      0.01         0.01
  WS02006109WS02006110        0.92      0.92      3.34      0.93         0.01
  WS02004406WS02004407        0.01      0.01      0.36      0.01         0.01
  WS02004405WS02004406        0.36      0.42      0.36      0.97         0.36
  WS02004404WS02004405        0.42      0.51      0.42      6.34         0.42
  WS02004403WS02004404        0.01      0.01      0.51      0.01         0.01
  WS02003072WS02003073        0.01      0.01      0.01      6.08         0.01
  HS02004480HS02004478        0.01      0.01      0.01      0.41         0.01
  YS02001759YS02001757        6.15      6.15      6.19      0.01         0.01
  YS02001762YS02001759        6.14      6.14      6.15      0.01         0.01
  YS02001765YS02001762        6.13      6.13      6.14      0.01         0.01
  YS02001770YS02001767        6.13      6.13      6.13      0.46         0.92
  YS02001774YS02001770        6.11      6.11      6.14      0.01         0.01
  YS02001779YS02001774        5.96      5.96      6.14      0.01         0.01
  YS02001649YS02001757        6.14      6.14      6.19      0.01         0.01
  YS02001767YS02001765        6.13      6.13      6.13      0.01         0.01
  YS02006561YS02001783        0.59      0.59      1.41      0.01         0.01
  YS02001783YS02001784        1.41      1.41      1.47      1.37         1.15
  YS02001784YS02001785        1.42      1.47      1.42      2.19         1.41
  YS02001788YS02001790        1.40      1.40      3.04      0.01         0.01
  YS02001790YS02001791        3.04      3.04      3.12      0.01         0.03
  YS02001791YS02001793        3.12      3.12      3.47      0.01         0.01
  YS02001910YS02001907        1.16      1.16      1.68      0.01         0.01
  YS02001786YS02001788        1.40      1.42      1.40      1.91         1.40
  YS02001915YS02001910        0.88      0.88      1.16      0.01         0.01
  YS02001918YS02001915        0.01      0.01      0.88      0.01         0.01
  YS02001923YS02001920        0.01      0.01      0.25      0.01         0.01
  YS02001920YS02001918        0.01      0.01      0.25      0.01         0.01
  YS02001629YS02163301        6.10      6.10      6.11      0.01         0.01
  YS02001619YS02001622        5.76      5.76      5.79      0.01         0.01
  YS02001622YS02001625        5.79      5.79      6.09      0.01         0.01
  YS02001625YS02001629        5.76      5.76      6.09      0.01         0.01
  YS02163301YS02001633        6.11      6.11      6.12      0.01         0.01
  YS02163601YS02164001        6.12      6.12      6.15      0.01         0.01
  YS02164001YS02001641        6.12      6.12      6.13      0.01         0.02
  YS02001641YS02001644        6.13      6.13      6.13      1.41         1.58
  YS02001647YS02001649        6.06      6.06      6.14      0.01         0.01
  YS02006553YS02006556        1.42      1.42      1.75      0.01         0.01
  YS02006556YS02006558        1.59      1.59      1.81      0.01         0.01
  YS02001907YS02006553        2.23      2.23      2.42      0.01         0.01
  YS02006558YS02006561        1.03      1.38      1.03      2.10         1.03
  YS02001633YS02163601        6.12      6.12      6.15      0.01         0.01
  YS02001644YS02001647        6.06      6.06      6.13      0.01         0.01
  YS02001745YS02001748        0.01      0.01      5.55      0.01         0.01
  YS02001748YS02001751        5.63      5.63      5.76      0.01         0.01
  YS02001751YS02001754        5.76      5.76      5.98      0.01         0.01
  YS02001754YS02001757        6.04      6.04      6.19      0.01         0.01
  YS02001882YS02001884        0.90      0.90      0.95      0.01         0.01
  YS02001884YS02001887        1.03      1.03      1.07      0.01         0.01
  YS02001890YS02001895        0.85      0.85      1.18      0.01         0.01
  YS02001895YS02001898        0.82      0.82      0.85      0.01         0.01
  YS02001898YS02001901        0.86      0.86      1.02      0.01         0.01
  YS02001901YS02001904        0.99      0.99      1.02      0.01         0.01
  YS02001904YS02001907        0.99      0.99      1.77      0.01         0.01
  YS02001887YS02001890        1.11      1.11      1.14      0.01         0.01
  YS02001652YS02001649        6.07      6.07      6.14      0.01         0.01
  YS02001655YS02001652        5.79      5.79      6.03      0.01         0.01
  YS02001658YS02001655        5.60      5.60      5.79      0.01         0.01
  YS02001661YS02001658        0.21      0.21      5.60      0.01         0.01
  YS02001664YS02001661        0.01      0.01      1.04      0.01         0.01
  YS02001793JiankangQianchi        3.29      3.29      4.74      0.01         0.01
  YS02001757CaochengTiaoxuchi        5.43      5.43      6.19      0.01         0.01
  
  
  ***************
  Pumping Summary
  ***************
  
  ---------------------------------------------------------------------------------------------------------
                                                  Min       Avg       Max     Total     Power    % Time Off
                        Percent   Number of      Flow      Flow      Flow    Volume     Usage    Pump Curve
  Pump                 Utilized   Start-Ups       LPS       LPS       LPS  10^6 ltr     Kw-hr    Low   High
  ---------------------------------------------------------------------------------------------------------
  CC-Pump-1               65.49           6      0.00    128.74    200.00     2.424      3.15    0.0    8.7
  CC-Pump-2               69.74           5      0.00    169.95    200.00     3.310      5.16    0.0    8.2
  JK-Pump-1               72.34           7      0.00    179.98    300.00     3.035     22.82    0.0    0.0
  JK-Pump-2               78.70           6      0.00    164.08    300.00     2.933     28.55    0.0    0.0
  XR-Pump-1               78.69           9      0.00     61.23     95.00     1.425     11.23    0.0    0.0
  XR-Pump-2               91.48           7      0.00     67.12     95.00     1.739     12.44    0.0    0.0
  XR-Pump-3               76.59           9      0.00     71.43     95.00     1.482      9.77    0.0    0.0
  XR-Pump-4               89.36           7      0.00     70.18     95.00     1.796     13.27    0.0    0.0
  

  Analysis begun on:  Wed Dec 15 17:01:02 2021
  Analysis ended on:  Wed Dec 15 17:01:06 2021
  Total elapsed time: 00:00:04