
  EPA STORM WATER MANAGEMENT MODEL - VERSION 5.1 (Build 5.3.0.dev0)
  --------------------------------------------------------------

  WARNING 04: minimum elevation drop used for Conduit WS02004404WS02004405
  WARNING 03: negative offset ignored for Link YS02001904YS02001907
  
  *********************************************************
  NOTE: The summary statistics displayed in this report are
  based on results found at every computational time step,  
  not just on results from each reporting time step.
  *********************************************************
  
  ****************
  Analysis Options
  ****************
  Flow Units ............... LPS
  Process Models:
    Rainfall/Runoff ........ YES
    RDII ................... NO
    Snowmelt ............... NO
    Groundwater ............ NO
    Flow Routing ........... YES
    Ponding Allowed ........ NO
    Water Quality .......... NO
  Infiltration Method ...... HORTON
  Flow Routing Method ...... DYNWAVE
  Surcharge Method ......... EXTRAN
  Starting Date ............ 08/28/2015 08:00:00
  Ending Date .............. 08/28/2015 15:50:00
  Antecedent Dry Days ...... 8.0
  Report Time Step ......... 00:01:00
  Wet Time Step ............ 00:01:00
  Dry Time Step ............ 00:01:00
  Routing Time Step ........ 5.00 sec
  Variable Time Step ....... YES
  Maximum Trials ........... 8
  Number of Threads ........ 4
  Head Tolerance ........... 0.001500 m
  
  
  **************************        Volume         Depth
  Runoff Quantity Continuity     hectare-m            mm
  **************************     ---------       -------
  Total Precipitation ......         4.854        10.627
  Evaporation Loss .........         0.000         0.000
  Infiltration Loss ........         1.246         2.727
  Surface Runoff ...........         2.607         5.707
  Final Storage ............         1.002         2.194
  Continuity Error (%) .....        -0.015
  
  
  **************************        Volume        Volume
  Flow Routing Continuity        hectare-m      10^6 ltr
  **************************     ---------     ---------
  Dry Weather Inflow .......         0.616         6.165
  Wet Weather Inflow .......         2.606        26.058
  Groundwater Inflow .......         0.000         0.000
  RDII Inflow ..............         0.000         0.000
  External Inflow ..........         0.102         1.024
  External Outflow .........         1.884        18.837
  Flooding Loss ............         0.932         9.323
  Evaporation Loss .........         0.000         0.000
  Exfiltration Loss ........         0.000         0.000
  Initial Stored Volume ....         0.076         0.761
  Final Stored Volume ......         0.641         6.407
  Continuity Error (%) .....        -1.647
  
  
  *************************
  Highest Continuity Errors
  *************************
  Node HS02004842 (17.68%)
  Node YS02001884 (11.59%)
  Node YS02001774 (10.43%)
  Node JK-storage (-6.85%)
  Node YSB1171 (3.62%)
  
  
  ***************************
  Time-Step Critical Elements
  ***************************
  Link WS02006252WS02006251 (53.96%)
  Link 3 (38.05%)
  Link WS02006238WS02006235 (2.57%)
  Link WS02006280WS02006229 (1.03%)
  
  
  ********************************
  Highest Flow Instability Indexes
  ********************************
  Link WS02006113WS02006111 (38)
  Link YS02001629YS02163301 (34)
  Link YS02163301YS02001633 (34)
  Link YS02163601YS02164001 (33)
  Link YS02001619YS02001622 (33)
  
  
  *************************
  Routing Time Step Summary
  *************************
  Minimum Time Step           :     0.15 sec
  Average Time Step           :     0.77 sec
  Maximum Time Step           :     5.00 sec
  Percent in Steady State     :    -0.00
  Average Iterations per Step :     4.49
  Percent Not Converging      :    22.27
  
  
  ***************************
  Subcatchment Runoff Summary
  ***************************
  
  ------------------------------------------------------------------------------------------------------------------------------
                            Total      Total      Total      Total     Imperv       Perv      Total       Total     Peak  Runoff
                           Precip      Runon       Evap      Infil     Runoff     Runoff     Runoff      Runoff   Runoff   Coeff
  Subcatchment                 mm         mm         mm         mm         mm         mm         mm    10^6 ltr      LPS
  ------------------------------------------------------------------------------------------------------------------------------
  sub0                      10.63       0.00       0.00       0.74       8.62       0.00       8.62        0.01     1.33   0.811
  sub1                      10.63       0.00       0.00       1.17       8.20       0.00       8.20        0.05     9.09   0.772
  sub2                      10.63       0.00       0.00       3.93       5.79       0.00       5.79        0.05     8.42   0.544
  sub3                      10.63       0.00       0.00       3.93       5.75       0.00       5.75        0.13    19.27   0.541
  sub4                      10.63       0.00       0.00       1.17       8.05       0.00       8.05        0.17    23.93   0.757
  sub5                      10.63       0.00       0.00       0.74       8.57       0.00       8.57        0.10    16.17   0.806
  sub7                      10.63       0.00       0.00       0.96       8.41       0.00       8.41        0.03     5.13   0.792
  sub8                      10.63       0.00       0.00       0.96       8.41       0.00       8.41        0.05     9.46   0.791
  sub9                      10.63       0.00       0.00       0.96       8.40       0.00       8.40        0.04     7.08   0.791
  sub10                     10.63       0.00       0.00       0.85       8.48       0.00       8.48        0.09    15.87   0.798
  sub11                     10.63       0.00       0.00       0.85       8.50       0.00       8.50        0.10    17.56   0.800
  sub12                     10.63       0.00       0.00       1.38       8.06       0.00       8.06        0.07    13.15   0.758
  sub14                     10.63       0.00       0.00       0.96       8.40       0.00       8.40        0.08    13.93   0.791
  sub15                     10.63       0.00       0.00       3.19       6.46       0.00       6.46        0.11    19.14   0.608
  sub16                     10.63       0.00       0.00       3.51       6.20       0.00       6.20        0.06    12.01   0.584
  sub17                     10.63       0.00       0.00       3.40       6.29       0.00       6.29        0.05     9.91   0.592
  sub22                     10.63       0.00       0.00       4.57       5.27       0.00       5.27        0.33    59.53   0.496
  sub23                     10.63       0.00       0.00       3.93       5.82       0.00       5.82        0.28    50.05   0.548
  sub60                     10.63       0.00       0.00       1.28       6.54       0.00       6.54        1.98   196.13   0.615
  sub61                     10.63       0.00       0.00       1.81       6.69       0.00       6.69        2.06   224.83   0.630
  sub62                     10.63       0.00       0.00       0.85       7.26       0.00       7.26        2.23   236.97   0.684
  sub63                     10.63       0.00       0.00       3.08       5.87       0.00       5.87        1.78   199.96   0.553
  sub64                     10.63       0.00       0.00       1.59       6.27       0.00       6.27        1.91   187.22   0.590
  sub65                     10.63       0.00       0.00       1.38       6.37       0.00       6.37        1.96   190.91   0.599
  sub66                     10.63       0.00       0.00       3.08       5.39       0.00       5.39        1.65   167.73   0.507
  sub67                     10.63       0.00       0.00       0.85       7.71       0.00       7.71        2.38   272.25   0.726
  sub68                     10.63       0.00       0.00       1.49       7.05       0.00       7.05        2.17   241.26   0.664
  sub69                     10.63       0.00       0.00       1.59       7.35       0.00       7.35        1.72   204.41   0.692
  sub70                     10.63       7.50       0.00       6.16       9.71       0.01       9.71        2.22   229.02   0.536
  sub71                     10.63       0.00       0.00       0.85       7.06       0.00       7.06        1.67   170.86   0.664
  sub72                     10.63       0.00       0.00       0.74       5.52       0.00       5.52        1.12    91.59   0.519
  sub73                     10.63       9.45       0.00       6.83      10.48       0.00      10.49        2.46   215.21   0.522
  sub74                     10.63       0.00       0.00       7.97       2.19       0.00       2.19        0.88   108.49   0.206
  
  
  ******************
  Node Depth Summary
  ******************
  
  ---------------------------------------------------------------------------------
                                 Average  Maximum  Maximum  Time of Max    Reported
                                   Depth    Depth      HGL   Occurrence   Max Depth
  Node                 Type       Meters   Meters   Meters  days hr:min      Meters
  ---------------------------------------------------------------------------------
  WS02001211           JUNCTION     0.63     0.78     5.62     0  02:41        0.78
  WS02001212           JUNCTION     0.36     0.49     5.56     0  02:41        0.49
  WS02001213           JUNCTION     0.60     0.74     5.51     0  02:41        0.74
  WS02003069           JUNCTION     0.44     0.56     5.15     0  02:03        0.56
  WS02003072           JUNCTION     0.50     0.62     4.99     0  02:03        0.62
  WS02003073           JUNCTION     0.30     0.38     4.45     0  02:04        0.38
  WS02003060           JUNCTION     0.39     0.50     5.43     0  02:02        0.50
  WS02003066           JUNCTION     0.24     0.31     5.86     0  02:04        0.31
  WS02003059           JUNCTION     0.66     0.79     5.48     0  02:42        0.79
  WS02003067           JUNCTION     0.59     0.72     6.04     0  02:03        0.72
  WS02004401           JUNCTION     0.70     0.89     6.89     0  01:58        0.89
  WS02004402           JUNCTION     0.73     0.92     6.88     0  01:58        0.92
  WS02004403           JUNCTION     0.75     0.93     6.86     0  01:59        0.93
  WS02004404           JUNCTION     0.82     1.00     6.85     0  01:59        1.00
  WS02004406           JUNCTION     0.83     0.98     6.81     0  01:59        0.98
  WS02004409           JUNCTION     0.52     0.70     6.47     0  02:03        0.70
  WS02004410           JUNCTION     0.54     0.72     6.44     0  02:03        0.72
  WS02004411           JUNCTION     0.55     0.72     6.40     0  02:03        0.72
  WS02004412           JUNCTION     0.56     0.73     6.37     0  02:03        0.73
  WS02004413           JUNCTION     0.72     0.88     6.35     0  02:04        0.88
  WS02004405           JUNCTION     0.82     0.99     6.84     0  01:59        0.99
  WS02006109           JUNCTION     0.78     1.02     7.64     0  01:46        1.02
  WS02006110           JUNCTION     0.77     0.96     7.54     0  01:50        0.95
  WS02006111           JUNCTION     0.23     0.30     7.01     0  01:54        0.30
  WS02006112           JUNCTION     0.87     1.18     7.06     0  02:04        1.12
  WS02006113           JUNCTION     0.36     0.48     7.37     0  01:53        0.48
  WS02006115           JUNCTION     0.59     0.80     6.94     0  01:58        0.80
  WS02006116           JUNCTION     0.67     0.88     6.92     0  01:58        0.88
  WS02006230           JUNCTION     0.76     1.08     7.82     0  01:50        1.08
  WS02006231           JUNCTION     0.51     0.78     7.91     0  01:49        0.75
  WS02006232           JUNCTION     0.65     0.92     7.95     0  01:49        0.88
  WS02006234           JUNCTION     0.57     0.86     8.01     0  01:49        0.81
  WS02006235           JUNCTION     0.60     0.88     8.04     0  01:50        0.84
  WS02006238           JUNCTION     0.62     0.90     8.05     0  01:50        0.87
  WS02006240           JUNCTION     0.52     0.80     8.10     0  01:50        0.78
  WS02006242           JUNCTION     0.57     0.88     8.15     0  01:49        0.85
  WS02006243           JUNCTION     0.45     0.75     8.17     0  01:50        0.73
  WS02006245           JUNCTION     0.43     0.70     8.19     0  01:52        0.70
  WS02006247           JUNCTION     0.45     0.75     8.25     0  01:50        0.72
  WS02006248           JUNCTION     0.39     0.64     8.23     0  01:53        0.64
  WS02006249           JUNCTION     0.42     0.64     8.24     0  01:54        0.64
  WS02006239           JUNCTION     0.58     0.86     8.07     0  01:50        0.83
  WS02006251           JUNCTION     0.41     0.68     8.35     0  01:51        0.68
  WS02006252           JUNCTION     0.36     0.59     8.84     0  03:49        0.59
  WS02006253           JUNCTION     0.44     0.71     8.36     0  01:51        0.71
  WS02006256           JUNCTION     1.05     1.21     8.15     0  02:00        1.21
  WS02004138           JUNCTION     0.14     0.19     7.44     0  01:00        0.19
  WS02004407           JUNCTION     0.23     0.31     6.62     0  01:59        0.31
  WS02006228           JUNCTION     0.79     1.08     7.73     0  01:55        1.07
  WS02006229           JUNCTION     0.77     1.08     7.77     0  01:50        1.07
  WS02006280           JUNCTION     0.07     0.16     8.43     0  01:50        0.16
  WS02006284           JUNCTION     0.37     0.50     8.90     0  01:50        0.50
  WS02006287           JUNCTION     0.10     0.23     9.19     0  01:50        0.23
  WSF200               JUNCTION     0.23     0.33     5.56     0  02:05        0.33
  HS02004901           JUNCTION     0.13     0.24    10.06     0  01:47        0.24
  HS02004881           JUNCTION     0.01     0.03     9.06     0  01:50        0.03
  HS02004876           JUNCTION     0.05     0.11     9.14     0  01:47        0.11
  HS02004870           JUNCTION     0.02     0.05     9.33     0  01:50        0.05
  HS02004862           JUNCTION     0.02     0.05     9.44     0  01:51        0.05
  HS02004856           JUNCTION     0.08     0.11     9.54     0  01:51        0.11
  HS02004852           JUNCTION     0.01     0.03     9.54     0  01:52        0.03
  HS02004848           JUNCTION     0.01     0.03     9.63     0  01:51        0.03
  HS02004842           JUNCTION     0.33     0.36     9.63     0  01:51        0.36
  HS02004837           JUNCTION     0.03     0.05     9.63     0  01:51        0.05
  HS02004830           JUNCTION     0.04     0.07     9.54     0  01:51        0.07
  HS02004824           JUNCTION     0.02     0.05     9.45     0  02:16        0.05
  HS02004817           JUNCTION     0.44     0.54     9.39     0  01:51        0.54
  HS02004807           JUNCTION     0.13     0.22     9.39     0  01:51        0.22
  HS02004802           JUNCTION     0.16     0.25     9.38     0  01:51        0.25
  HS02004799           JUNCTION     0.12     0.28     9.49     0  01:48        0.28
  HS02004792           JUNCTION     0.03     0.11     9.63     0  01:47        0.11
  HS02004788           JUNCTION     0.03     0.08     9.98     0  01:48        0.08
  HS02004785           JUNCTION     0.05     0.14    10.04     0  01:48        0.14
  HS02004777           JUNCTION     0.15     0.26    10.06     0  01:47        0.26
  HS02004770           JUNCTION     0.12     0.23    10.06     0  01:47        0.23
  HS02004480           JUNCTION     0.09     0.21     9.46     0  01:48        0.21
  HS02004479           JUNCTION     0.12     0.25     9.46     0  01:48        0.25
  HS02004478           JUNCTION     0.06     0.14     9.37     0  01:49        0.14
  YS02001745           JUNCTION     0.67     0.86     8.38     0  03:19        0.86
  YS02001748           JUNCTION     1.06     1.76     8.84     0  02:46        1.30
  YS02001751           JUNCTION     1.25     1.84     8.72     0  02:29        1.52
  YS02001754           JUNCTION     1.50     1.85     8.45     0  02:30        1.79
  YS02001762           JUNCTION     1.70     2.02     8.42     0  03:27        2.02
  YS02001765           JUNCTION     1.66     1.97     8.42     0  03:10        1.96
  YS02001767           JUNCTION     1.62     1.93     8.42     0  03:15        1.92
  YS02001770           JUNCTION     1.62     1.91     8.40     0  03:34        1.90
  YS02001774           JUNCTION     1.69     1.97     8.40     0  03:27        1.96
  YS02001779           JUNCTION     1.43     1.68     8.37     0  02:30        1.68
  YS02001882           JUNCTION     0.42     0.85     7.56     0  03:02        0.85
  YS02001884           JUNCTION     0.52     0.94     7.56     0  03:02        0.94
  YS02001759           JUNCTION     1.74     2.06     8.43     0  03:10        2.05
  YS02001887           JUNCTION     0.59     1.02     7.56     0  03:03        1.02
  YS02001890           JUNCTION     0.62     1.05     7.56     0  03:03        1.05
  YS02001898           JUNCTION     0.39     0.81     7.55     0  03:03        0.81
  YS02001901           JUNCTION     0.51     0.94     7.55     0  03:03        0.94
  YS02001904           JUNCTION     0.49     0.91     7.54     0  03:03        0.91
  YS02001907           JUNCTION     0.82     1.25     7.54     0  03:03        1.25
  YS02001910           JUNCTION     0.61     1.04     7.55     0  03:03        1.04
  YS02001915           JUNCTION     0.41     0.83     7.55     0  03:03        0.83
  YS02001918           JUNCTION     0.16     0.48     7.55     0  03:03        0.48
  YS02001619           JUNCTION     1.22     1.61     8.54     0  02:33        1.49
  YS02001629           JUNCTION     1.57     1.85     8.40     0  02:36        1.85
  YS02001641           JUNCTION     1.67     1.96     8.40     0  02:43        1.93
  YS02001644           JUNCTION     1.68     1.92     8.35     0  02:43        1.92
  YS02001652           JUNCTION     1.52     2.16     8.76     0  02:26        1.87
  YS02001655           JUNCTION     1.28     2.20     9.05     0  02:23        1.70
  YS02001920           JUNCTION     0.26     0.55     7.56     0  03:03        0.54
  YS02001923           JUNCTION     0.11     0.30     7.56     0  03:02        0.29
  YS02001926           JUNCTION     0.20     0.26     7.71     0  03:01        0.26
  YS02001929           JUNCTION     0.10     0.14     7.84     0  03:01        0.14
  YS02001658           JUNCTION     1.01     2.30     9.44     0  02:33        1.59
  YS02001661           JUNCTION     0.78     2.46     9.86     0  02:58        1.50
  YS02001664           JUNCTION     0.34     0.57     8.49     0  02:56        0.56
  YS02001622           JUNCTION     1.24     1.62     8.52     0  02:33        1.51
  YS02001633           JUNCTION     1.66     2.01     8.47     0  02:43        1.95
  YS02001649           JUNCTION     1.71     2.05     8.44     0  02:54        2.05
  YS02001757           JUNCTION     1.84     2.17     8.43     0  03:12        2.16
  YS02001895           JUNCTION     0.39     0.81     7.55     0  03:03        0.81
  YS02001625           JUNCTION     1.52     1.78     8.38     0  02:36        1.78
  YS02163301           JUNCTION     1.60     1.93     8.44     0  02:43        1.89
  YS02163601           JUNCTION     1.71     2.04     8.44     0  02:43        2.00
  YS02164001           JUNCTION     1.65     1.97     8.43     0  02:43        1.93
  YS02001647           JUNCTION     1.50     1.81     8.42     0  02:44        1.79
  YSB1154              JUNCTION     0.26     0.40     9.46     0  01:48        0.40
  YSB6556              JUNCTION     0.15     0.29     9.46     0  01:48        0.29
  YSB1174              JUNCTION     0.21     0.35     9.46     0  01:49        0.35
  YSB1171              JUNCTION     0.41     0.55     9.46     0  01:48        0.55
  YS02006553           JUNCTION     0.82     1.25     7.53     0  03:03        1.25
  YS02006561           JUNCTION     0.23     0.56     7.22     0  03:03        0.56
  YS02006556           JUNCTION     0.79     1.21     7.52     0  03:03        1.21
  YS02006558           JUNCTION     0.83     1.24     7.51     0  03:02        1.24
  YS02001783           JUNCTION     0.46     2.32     8.46     0  02:21        1.07
  YS02001784           JUNCTION     0.49     1.95     8.02     0  02:21        1.07
  YS02001786           JUNCTION     0.44     1.91     7.94     0  02:21        0.98
  YS02001788           JUNCTION     0.39     1.61     7.58     0  02:21        0.93
  YS02001790           JUNCTION     0.51     1.96     7.60     0  02:20        1.16
  YS02001791           JUNCTION     0.49     2.57     8.04     0  02:19        1.22
  YS02001793           JUNCTION     0.68     2.16     6.99     0  02:19        1.79
  WS02004139           JUNCTION     0.57     0.73     5.64     0  02:40        0.73
  WSC                  OUTFALL      0.30     0.38     1.05     0  02:04        0.38
  3                    OUTFALL      0.09     0.21     6.21     0  02:00        0.21
  4                    OUTFALL      0.02     0.14     7.14     0  01:58        0.14
  5                    OUTFALL      0.00     0.00     5.00     0  00:00        0.00
  JK-storage           STORAGE      2.50     5.80     6.60     0  02:20        5.80
  CC-storage           STORAGE      1.05     1.37     8.37     0  04:43        1.37
  XR-storage           STORAGE      7.42     7.72     5.72     0  02:16        7.72
  
  
  *******************
  Node Inflow Summary
  *******************
  
  -------------------------------------------------------------------------------------------------
                                  Maximum  Maximum                  Lateral       Total        Flow
                                  Lateral    Total  Time of Max      Inflow      Inflow     Balance
                                   Inflow   Inflow   Occurrence      Volume      Volume       Error
  Node                 Type           LPS      LPS  days hr:min    10^6 ltr    10^6 ltr     Percent
  -------------------------------------------------------------------------------------------------
  WS02001211           JUNCTION      7.35   382.64     0  02:40       0.207        6.15       0.440
  WS02001212           JUNCTION      0.00   379.76     0  02:41           0        6.12       0.245
  WS02001213           JUNCTION      0.00   378.91     0  02:41           0        6.11       0.262
  WS02003069           JUNCTION      0.32   889.02     0  02:02     0.00902        14.8       0.163
  WS02003072           JUNCTION      0.00   888.85     0  02:03           0        14.8       0.208
  WS02003073           JUNCTION      1.82   890.60     0  02:04      0.0514        14.8       0.231
  WS02003060           JUNCTION     16.53   888.69     0  02:02       0.466        14.8       0.156
  WS02003066           JUNCTION      0.00   588.86     0  02:04           0         8.3       0.055
  WS02003059           JUNCTION      0.00   378.98     0  02:42           0         6.1       0.558
  WS02003067           JUNCTION      0.00   588.86     0  02:04           0        8.31       0.115
  WS02004401           JUNCTION      0.00   590.50     0  01:57           0        8.55       0.258
  WS02004402           JUNCTION      0.00   590.67     0  01:58           0        8.53       0.243
  WS02004403           JUNCTION      0.00   590.14     0  01:57           0        8.51       0.220
  WS02004404           JUNCTION      0.16   590.07     0  01:59     0.00457        8.49       0.165
  WS02004406           JUNCTION      0.00   590.35     0  01:59           0        8.46       0.402
  WS02004409           JUNCTION      0.00   589.63     0  01:59           0        8.42       0.202
  WS02004410           JUNCTION      0.00   589.06     0  02:03           0         8.4       0.227
  WS02004411           JUNCTION      0.00   588.98     0  02:03           0        8.38       0.232
  WS02004412           JUNCTION      0.00   588.95     0  02:03           0        8.36       0.250
  WS02004413           JUNCTION      0.00   588.89     0  02:04           0        8.34       0.368
  WS02004405           JUNCTION      0.04   590.23     0  01:59     0.00107        8.48       0.247
  WS02006109           JUNCTION      1.23   584.02     0  01:51      0.0347        8.62       0.245
  WS02006110           JUNCTION      0.00   584.03     0  01:51           0         8.6       0.236
  WS02006111           JUNCTION      0.00   609.71     0  01:53           0        8.57       0.055
  WS02006112           JUNCTION      9.91   600.13     0  01:54       0.054        8.62       0.342
  WS02006113           JUNCTION      0.00   584.87     0  01:50           0        8.58       0.117
  WS02006115           JUNCTION      0.00   613.43     0  01:54           0        8.59       0.243
  WS02006116           JUNCTION      0.00   594.97     0  01:54           0        8.57       0.230
  WS02006230           JUNCTION     10.28   394.10     0  05:13        0.29        6.98       0.208
  WS02006231           JUNCTION      0.00   385.68     0  05:12           0         6.7       0.154
  WS02006232           JUNCTION      0.00   385.82     0  05:12           0        6.72       0.244
  WS02006234           JUNCTION      0.00   386.93     0  05:11           0        6.72       0.122
  WS02006235           JUNCTION      0.00   387.39     0  05:12           0        6.77       0.167
  WS02006238           JUNCTION      0.00   324.12     0  03:20           0        4.67       0.162
  WS02006240           JUNCTION      0.00   332.97     0  03:20           0        4.66       0.263
  WS02006242           JUNCTION      0.00   337.23     0  03:21           0        4.66       0.314
  WS02006243           JUNCTION      0.00   340.45     0  03:21           0        4.65      -0.019
  WS02006245           JUNCTION      0.00   342.07     0  03:20           0        4.66       0.254
  WS02006247           JUNCTION      0.00   346.84     0  01:48           0        4.67       0.152
  WS02006248           JUNCTION      0.00   352.98     0  01:48           0        4.67       0.068
  WS02006249           JUNCTION      0.00   456.20     0  01:51           0        5.09       0.227
  WS02006239           JUNCTION      0.00   327.46     0  03:20           0        4.66       0.246
  WS02006251           JUNCTION      0.08   455.07     0  01:51     0.00217        5.11       0.173
  WS02006252           JUNCTION      0.00   400.00     0  01:50           0        4.79       0.009
  WS02006253           JUNCTION      1.33    51.15     0  01:49     0.00698       0.328       1.162
  WS02006256           JUNCTION      0.00   599.99     0  03:00           0        5.81       0.057
  WS02004138           JUNCTION      0.00   379.98     0  02:40           0        5.96       0.014
  WS02004407           JUNCTION      0.00   589.88     0  01:59           0        8.43       0.091
  WS02006228           JUNCTION      0.00   582.76     0  01:51           0         8.6       0.174
  WS02006229           JUNCTION      0.00   584.38     0  01:50           0        8.61       0.151
  WS02006280           JUNCTION      0.00   250.77     0  01:50           0        1.65       0.004
  WS02006284           JUNCTION      0.10   250.79     0  01:50      0.0027        1.65       0.062
  WS02006287           JUNCTION      0.00   250.70     0  01:50           0        1.65       0.044
  WSF200               JUNCTION      0.00   588.85     0  02:04           0         8.3       0.055
  HS02004901           JUNCTION     12.01    12.01     0  01:45      0.0649      0.0651       2.778
  HS02004881           JUNCTION      5.13    49.92     0  01:49      0.0283       0.303       0.111
  HS02004876           JUNCTION      9.09    44.88     0  01:50      0.0545       0.275       0.197
  HS02004870           JUNCTION      9.46    35.90     0  01:50      0.0537       0.221       0.049
  HS02004862           JUNCTION      8.62    26.77     0  01:51      0.0595       0.167       0.103
  HS02004856           JUNCTION      7.08    18.19     0  01:50      0.0404       0.109       1.338
  HS02004852           JUNCTION      0.00    11.37     0  01:51           0      0.0688       0.079
  HS02004848           JUNCTION     19.27    19.27     0  02:15       0.129       0.129       0.035
  HS02004842           JUNCTION      0.00     7.96     0  02:16           0      0.0736      21.474
  HS02004837           JUNCTION     22.22    28.76     0  01:50       0.273       0.333       0.244
  HS02004830           JUNCTION      0.15    28.90     0  01:51     0.00423       0.323       0.383
  HS02004824           JUNCTION     23.98    52.78     0  02:16       0.169       0.492       0.110
  HS02004817           JUNCTION      0.60    53.38     0  02:16      0.0169       0.508       3.394
  HS02004807           JUNCTION     17.56    68.44     0  02:16      0.0987        0.59       0.739
  HS02004802           JUNCTION      0.00    68.45     0  02:16           0       0.587       0.678
  HS02004799           JUNCTION     13.93   155.61     0  01:47      0.0799       0.915       0.288
  HS02004792           JUNCTION     59.81   141.74     0  01:47       0.341       0.835       0.049
  HS02004788           JUNCTION     20.81    82.39     0  01:48       0.158       0.496       0.079
  HS02004785           JUNCTION      0.15    61.69     0  01:47     0.00423       0.339       0.145
  HS02004777           JUNCTION      0.03    61.68     0  01:46    0.000846        0.34       1.552
  HS02004770           JUNCTION     50.05    61.90     0  01:46       0.278       0.341       0.915
  HS02004480           JUNCTION      0.00   184.53     0  01:48           0        1.08       0.105
  HS02004479           JUNCTION      0.00    29.01     0  01:50           0       0.176       0.418
  HS02004478           JUNCTION      0.00   250.68     0  01:49           0        1.65       0.021
  YS02001745           JUNCTION    196.14   353.27     0  02:40        1.98        1.99       0.547
  YS02001748           JUNCTION      0.04   520.85     0  02:41     0.00127        1.98       1.107
  YS02001751           JUNCTION      0.01   367.50     0  02:20     0.00031        1.95       1.197
  YS02001754           JUNCTION      0.26   230.42     0  02:43     0.00733        1.93       1.281
  YS02001762           JUNCTION      0.00   239.40     0  02:42           0        1.98       1.060
  YS02001765           JUNCTION      0.00   238.96     0  02:58           0        1.99       1.230
  YS02001767           JUNCTION      0.54   238.68     0  02:58      0.0151        2.01       1.791
  YS02001770           JUNCTION    237.12   237.67     0  02:59        2.24        2.25       1.413
  YS02001774           JUNCTION      0.00   100.08     0  03:18           0       0.239      11.645
  YS02001779           JUNCTION      0.01   101.54     0  03:18    0.000141       0.204       8.067
  YS02001882           JUNCTION      0.00    12.71     0  02:14           0      0.0156      15.309
  YS02001884           JUNCTION      0.00    20.92     0  02:14           0      0.0492      13.112
  YS02001759           JUNCTION    224.87   464.24     0  02:58        2.06        4.01       0.563
  YS02001887           JUNCTION    272.70   272.70     0  02:58        2.39        2.42       0.334
  YS02001890           JUNCTION      0.00   268.92     0  02:59           0        2.38       0.370
  YS02001898           JUNCTION      0.00   271.51     0  02:24           0        2.36       0.116
  YS02001901           JUNCTION      0.00   266.74     0  02:27           0        2.36       0.276
  YS02001904           JUNCTION      0.00   264.14     0  03:02           0        2.36       0.252
  YS02001907           JUNCTION      0.00   526.62     0  03:06           0        5.21       0.455
  YS02001910           JUNCTION      0.00   267.57     0  03:09           0        2.86       0.393
  YS02001915           JUNCTION    170.88   264.23     0  03:04        1.67        2.86       0.195
  YS02001918           JUNCTION      0.00   108.12     0  03:16           0         1.2       0.142
  YS02001619           JUNCTION    167.73   167.73     0  03:01        1.65        1.65       0.721
  YS02001629           JUNCTION      0.00   196.09     0  02:23           0        1.57       1.817
  YS02001641           JUNCTION      0.00   375.93     0  02:39           0        3.43       0.612
  YS02001644           JUNCTION    187.26   732.32     0  03:19        1.91        6.63       0.391
  YS02001652           JUNCTION      0.00   270.09     0  02:32           0        1.73       1.325
  YS02001655           JUNCTION      0.15   414.45     0  02:25     0.00434        1.75       1.372
  YS02001920           JUNCTION      2.87   105.55     0  03:05      0.0809         1.2       0.228
  YS02001923           JUNCTION      0.04    91.49     0  03:01     0.00106        1.12       0.042
  YS02001926           JUNCTION      0.05    91.60     0  03:01     0.00147        1.12       0.282
  YS02001929           JUNCTION     91.59    91.59     0  03:01        1.12        1.12       0.041
  YS02001658           JUNCTION      0.00   615.48     0  02:33           0         1.8       1.190
  YS02001661           JUNCTION      0.00   598.69     0  02:54           0        2.54       0.101
  YS02001664           JUNCTION    199.96   377.15     0  02:54        1.78        2.51       0.240
  YS02001622           JUNCTION      0.00   181.80     0  02:10           0        1.64       1.947
  YS02001633           JUNCTION    191.11   370.67     0  02:39        1.96        3.49       0.919
  YS02001649           JUNCTION      0.00   726.98     0  02:52           0        4.74       0.776
  YS02001757           JUNCTION      0.00  1353.34     0  02:53           0        9.25       0.999
  YS02001895           JUNCTION      0.00   267.94     0  02:59           0        2.37       0.201
  YS02001625           JUNCTION      0.00   196.25     0  02:23           0        1.61       2.462
  YS02163301           JUNCTION      0.00   198.50     0  02:39           0        1.56       1.553
  YS02163601           JUNCTION      0.11   371.88     0  02:39      0.0031        3.45       0.873
  YS02164001           JUNCTION      0.00   372.61     0  02:39           0        3.43       0.581
  YS02001647           JUNCTION      0.00   548.66     0  02:39           0        3.69       0.753
  YSB1154              JUNCTION     16.17    16.17     0  01:48       0.097      0.0978       1.500
  YSB6556              JUNCTION      0.00    16.24     0  01:49           0      0.0986       1.284
  YSB1174              JUNCTION     13.15    13.15     0  01:45      0.0704      0.0709       1.844
  YSB1171              JUNCTION      0.00    29.31     0  01:48           0       0.175       3.755
  YS02006553           JUNCTION      0.00   526.61     0  03:06           0         5.2       0.285
  YS02006561           JUNCTION      0.00   753.30     0  03:03           0        7.33       0.007
  YS02006556           JUNCTION      0.00   526.63     0  03:06           0         5.2       0.211
  YS02006558           JUNCTION    242.14   753.30     0  03:03        2.19        7.37       0.071
  YS02001783           JUNCTION      0.00   753.43     0  03:03           0        7.33       0.029
  YS02001784           JUNCTION      1.06   754.63     0  03:03      0.0299        7.36       0.045
  YS02001786           JUNCTION      0.06   754.51     0  03:03     0.00159        7.36       0.043
  YS02001788           JUNCTION      0.07   754.58     0  03:03       0.002        7.36       0.026
  YS02001790           JUNCTION      0.15   754.76     0  03:04     0.00437        7.36       0.025
  YS02001791           JUNCTION      0.00   754.83     0  03:04           0        7.36       0.013
  YS02001793           JUNCTION      0.00   754.89     0  03:03           0        7.36      -0.012
  WS02004139           JUNCTION      0.32   379.68     0  02:40     0.00905        5.96       0.353
  WSC                  OUTFALL       0.00   890.51     0  02:04           0        14.8       0.000
  3                    OUTFALL       0.00   525.96     0  02:00           0        3.67       0.000
  4                    OUTFALL       0.00   192.71     0  01:58           0       0.401       0.000
  5                    OUTFALL       0.00     0.00     0  00:00           0           0       0.000 ltr
  JK-storage           STORAGE       0.00   911.49     0  02:18           0        7.51      -6.413
  CC-storage           STORAGE       0.00  1353.07     0  02:53           0        8.46       0.554
  XR-storage           STORAGE     519.52   519.52     0  03:01        8.98        9.58      -0.001
  
  
  **********************
  Node Surcharge Summary
  **********************
  
  Surcharging occurs when water rises above the top of the highest conduit.
  ---------------------------------------------------------------------
                                               Max. Height   Min. Depth
                                   Hours       Above Crown    Below Rim
  Node                 Type      Surcharged         Meters       Meters
  ---------------------------------------------------------------------
  WS02006109           JUNCTION        2.19          0.204        1.616
  WS02006110           JUNCTION        0.87          0.048        1.802
  WS02006112           JUNCTION        1.27          0.177        1.503
  WS02006231           JUNCTION        0.31          0.075        1.455
  WS02006232           JUNCTION        2.07          0.216        1.264
  WS02006234           JUNCTION        0.82          0.137        1.103
  WS02006235           JUNCTION        1.43          0.166        1.124
  WS02006238           JUNCTION        1.70          0.182        1.248
  WS02006240           JUNCTION        0.56          0.092        1.298
  WS02006242           JUNCTION        1.06          0.148        0.672
  WS02006243           JUNCTION        0.20          0.041        0.729
  WS02006247           JUNCTION        0.03          0.038        0.722
  WS02006239           JUNCTION        0.82          0.122        1.168
  WS02006252           JUNCTION        1.75          0.193        0.907
  WS02006228           JUNCTION        2.08          0.247        1.953
  YS02001748           JUNCTION        5.03          0.681        0.509
  YS02001751           JUNCTION        5.33          0.843        0.357
  YS02001754           JUNCTION        5.57          0.797        0.353
  YS02001762           JUNCTION        5.94          1.024        0.126
  YS02001765           JUNCTION        5.90          0.974        0.126
  YS02001767           JUNCTION        5.75          0.929        0.101
  YS02001770           JUNCTION        5.72          0.876        0.044
  YS02001774           JUNCTION        5.93          0.973        0.077
  YS02001779           JUNCTION        5.55          0.680        0.000
  YS02001759           JUNCTION        5.96          1.064        0.146
  YS02001890           JUNCTION        0.02          0.004        0.756
  YS02001907           JUNCTION        1.22          0.243        0.707
  YS02001910           JUNCTION        0.21          0.040        1.060
  YS02001619           JUNCTION        5.30          0.610        0.000
  YS02001629           JUNCTION        5.34          0.470        0.000
  YS02001641           JUNCTION        5.92          0.963        0.137
  YS02001644           JUNCTION        5.93          0.920        0.000
  YS02001652           JUNCTION        5.63          1.130        0.000
  YS02001655           JUNCTION        5.35          1.200        0.000
  YS02001658           JUNCTION        5.06          1.300        0.000
  YS02001661           JUNCTION        0.18          1.390        0.000
  YS02001622           JUNCTION        5.37          0.620        0.000
  YS02001633           JUNCTION        5.86          0.991        0.069
  YS02001649           JUNCTION        5.94          1.050        0.000
  YS02001757           JUNCTION        6.03          1.167        0.043
  YS02001625           JUNCTION        5.69          0.780        0.000
  YS02163301           JUNCTION        5.75          0.927        0.103
  YS02163601           JUNCTION        5.95          1.037        0.043
  YS02164001           JUNCTION        5.89          0.972        0.128
  YS02001647           JUNCTION        5.67          0.809        0.091
  YS02006553           JUNCTION        1.31          0.249        0.941
  YS02006556           JUNCTION        0.68          0.168        1.182
  YS02006558           JUNCTION        0.59          0.144        1.256
  YS02001783           JUNCTION        1.05          1.524        0.076
  YS02001784           JUNCTION        1.12          1.153        0.337
  YS02001786           JUNCTION        1.06          1.114        0.316
  YS02001788           JUNCTION        1.04          0.806        0.674
  YS02001790           JUNCTION        1.93          1.157        0.000
  YS02001791           JUNCTION        2.00          1.766        0.154
  YS02001793           JUNCTION        2.22          1.161        1.439
  
  
  *********************
  Node Flooding Summary
  *********************
  
  Flooding refers to all water that overflows a node, whether it ponds or not.
  --------------------------------------------------------------------------
                                                             Total   Maximum
                                 Maximum   Time of Max       Flood    Ponded
                        Hours       Rate    Occurrence      Volume     Depth
  Node                 Flooded       LPS   days hr:min    10^6 ltr    Meters
  --------------------------------------------------------------------------
  YS02001779              2.03    101.40      0  03:18       0.179     0.000
  YS02001619              0.01     19.62      0  02:36       0.000     0.000
  YS02001629              0.01     33.85      0  02:38       0.000     0.000
  YS02001644              4.09    732.28      0  03:19       4.220     0.000
  YS02001652              0.01     19.26      0  02:26       0.000     0.000
  YS02001655              0.01    313.03      0  02:25       0.001     0.000
  YS02001658              0.01    341.35      0  02:33       0.001     0.000
  YS02001661              0.01    148.18      0  03:00       0.000     0.000
  YS02001622              0.01     27.59      0  02:36       0.000     0.000
  YS02001649              0.05     41.10      0  03:00       0.002     0.000
  YS02001625              0.25     23.07      0  02:42       0.004     0.000
  YS02001790              0.01    219.13      0  02:20       0.000     0.000
  JK-storage              1.71    736.29      0  03:10       2.218     0.000
  XR-storage              4.73    393.82      0  03:10       2.698     0.000
  
  
  **********************
  Storage Volume Summary
  **********************
  
  --------------------------------------------------------------------------------------------------
                         Average     Avg  Evap Exfil       Maximum     Max    Time of Max    Maximum
                          Volume    Pcnt  Pcnt  Pcnt        Volume    Pcnt     Occurrence    Outflow
  Storage Unit           1000 m3    Full  Loss  Loss       1000 m3    Full    days hr:min        LPS
  --------------------------------------------------------------------------------------------------
  JK-storage               0.126      43     0     0         0.291     100       0  02:20     599.99
  CC-storage               2.932      19     0     0         3.809      24       0  04:43     400.00
  XR-storage               0.891      96     0     0         0.926     100       0  02:16     379.98
  
  
  ***********************
  Outfall Loading Summary
  ***********************
  
  -----------------------------------------------------------
                         Flow       Avg       Max       Total
                         Freq      Flow      Flow      Volume
  Outfall Node           Pcnt       LPS       LPS    10^6 ltr
  -----------------------------------------------------------
  WSC                   99.99    587.47    890.51      14.765
  3                     85.40    195.93    525.96       3.672
  4                     32.73     55.67    192.71       0.401
  5                      0.00      0.00      0.00       0.000
  -----------------------------------------------------------
  System                54.53    839.06   1567.98      18.837
  
  
  ********************
  Link Flow Summary
  ********************
  
  -----------------------------------------------------------------------------
                                 Maximum  Time of Max   Maximum    Max/    Max/
                                  |Flow|   Occurrence   |Veloc|    Full    Full
  Link                 Type          LPS  days hr:min     m/sec    Flow   Depth
  -----------------------------------------------------------------------------
  WS02003066WSF200     CONDUIT    588.85     0  02:04      2.77    0.10    0.24
  WS02006287WS02006284 CONDUIT    250.70     0  01:50      1.73    0.12    0.24
  WS02006284WS02006280 CONDUIT    250.77     0  01:50      1.97    0.11    0.22
  WS02006280WS02006229 CONDUIT    250.78     0  01:50      3.17    0.05    0.16
  WS02006229WS02006228 CONDUIT    582.76     0  01:51      1.16    1.93    1.00
  WS02006256WS02006235 CONDUIT    166.25     0  00:01      2.58    1.76    1.00
  WS02006253WS02006251 CONDUIT     59.78     0  02:29      0.51    0.18    0.98
  WS02006252WS02006251 CONDUIT    400.24     0  01:50      3.18    1.47    1.00
  WS02006251WS02006249 CONDUIT    456.20     0  01:51      1.21    1.32    0.95
  WS02006249WS02006248 CONDUIT    352.98     0  01:48      1.17    1.93    0.90
  WS02006248WS02006247 CONDUIT    346.84     0  01:48      1.14    0.75    0.95
  WS02006247WS02006245 CONDUIT    342.07     0  03:20      1.12    2.71    0.99
  WS02006245WS02006243 CONDUIT    340.45     0  03:21      1.19    1.01    1.00
  WS02006243WS02006242 CONDUIT    337.23     0  03:21      1.02    0.72    1.00
  WS02006242WS02006240 CONDUIT    332.97     0  03:20      0.91    1.32    1.00
  WS02006240WS02006239 CONDUIT    327.46     0  03:20      0.94    1.03    1.00
  WS02006239WS02006238 CONDUIT    324.12     0  03:20      0.89    1.04    1.00
  WS02006238WS02006235 CONDUIT    322.13     0  03:20      1.25    0.72    1.00
  WS02006235WS02006234 CONDUIT    386.93     0  05:11      1.02    4.08    1.00
  WS02006234WS02006232 CONDUIT    385.82     0  05:12      1.13    0.78    1.00
  WS02006232WS02006231 CONDUIT    385.68     0  05:12      1.05    0.81    1.00
  WS02006231WS02006230 CONDUIT    383.82     0  05:13      1.32    5.82    1.00
  WS02006230WS02006229 CONDUIT    393.74     0  05:13      1.02    8.76    1.00
  WS02006228WS02006109 CONDUIT    582.79     0  01:51      1.16    2.55    1.00
  WS02006116WS02004401 CONDUIT    590.50     0  01:57      0.81    0.81    0.89
  WS02006115WS02006116 CONDUIT    594.97     0  01:54      0.92    0.76    0.81
  WS02006113WS02006111 CONDUIT    609.71     0  01:53      2.53    0.73    0.48
  WS02006112WS02006115 CONDUIT    613.43     0  01:54      0.83    0.36    0.90
  WS02006111WS02006112 CONDUIT    591.24     0  01:54      1.62    0.28    0.68
  WS02006110WS02006113 CONDUIT    584.87     0  01:50      1.36    0.53    0.80
  WS02006109WS02006110 CONDUIT    584.03     0  01:51      1.16    1.12    1.00
  WS02004411WS02004412 CONDUIT    588.95     0  02:03      0.97    0.84    0.72
  WS02004401WS02004402 CONDUIT    590.67     0  01:58      0.79    0.71    0.91
  WS02004413WS02003067 CONDUIT    588.86     0  02:04      1.17    0.25    0.61
  WS02004412WS02004413 CONDUIT    588.89     0  02:04      0.87    0.39    0.80
  WS02004410WS02004411 CONDUIT    588.98     0  02:03      0.98    0.80    0.72
  WS02004409WS02004410 CONDUIT    589.06     0  02:03      1.01    0.76    0.71
  WS02004407WS02004409 CONDUIT    589.63     0  01:59      1.53    0.21    0.51
  WS02004406WS02004407 CONDUIT    589.88     0  01:59      1.10    0.26    0.65
  WS02004405WS02004406 CONDUIT    590.35     0  01:59      0.75    1.16    0.99
  WS02004404WS02004405 CONDUIT    590.19     0  01:59      0.84    5.78    0.99
  WS02004403WS02004404 CONDUIT    589.91     0  01:59      0.76    0.43    0.96
  WS02004402WS02004403 CONDUIT    590.14     0  01:57      0.78    0.85    0.92
  WS02004139WS02001211 CONDUIT    375.30     0  02:40      0.58    0.47    0.59
  WS02004138WS02004139 CONDUIT    379.36     0  02:40      1.27    0.08    0.43
  WS02003067WS02003066 CONDUIT    588.86     0  02:04      1.27    0.19    0.43
  WS02001213WS02003059 CONDUIT    378.98     0  02:42      0.67    0.63    0.76
  WS02001212WS02001213 CONDUIT    378.91     0  02:41      1.29    0.58    0.46
  WS02001211WS02001212 CONDUIT    379.76     0  02:41      0.76    0.29    0.64
  WS02003072WS02003073 CONDUIT    888.78     0  02:04      1.69    1.92    0.47
  WS02003069WS02003072 CONDUIT    888.85     0  02:03      1.59    0.43    0.49
  WS02003060WS02003069 CONDUIT    888.70     0  02:02      1.84    0.35    0.44
  WS02003059WS02003060 CONDUIT    378.88     0  02:42      0.91    0.25    0.65
  HS02004901HS02004770 CONDUIT     11.86     0  01:47      0.05    0.04    0.34
  HS02004876HS02004881 CONDUIT     44.96     0  01:50      0.68    0.48    0.09
  HS02004870HS02004876 CONDUIT     35.89     0  01:50      0.47    0.02    0.11
  HS02004842HS02004848 CONDUIT      7.96     0  02:16      0.04    0.00    0.28
  HS02004837HS02004842 CONDUIT      8.06     0  02:20      0.41    0.00    0.30
  HS02004830HS02004837 CONDUIT     28.75     0  01:51      0.48    0.03    0.09
  HS02004824HS02004830 CONDUIT     28.90     0  01:52      0.51    0.04    0.08
  HS02004817HS02004824 CONDUIT     52.78     0  02:16      0.18    0.02    0.42
  HS02004770HS02004777 CONDUIT     61.65     0  01:46      0.25    0.11    0.35
  HS02004799HS02004480 CONDUIT    155.54     0  01:47      0.65    0.20    0.34
  HS02004792HS02004799 CONDUIT    141.71     0  01:47      0.74    0.09    0.27
  HS02004788HS02004792 CONDUIT     82.36     0  01:48      0.88    0.05    0.13
  HS02004785HS02004788 CONDUIT     61.65     0  01:48      0.55    0.46    0.16
  HS02004777HS02004785 CONDUIT     61.54     0  01:47      0.30    0.08    0.29
  HS02004480HS02004478 CONDUIT    184.33     0  01:49      1.04    0.78    0.25
  HS02004479HS02004480 CONDUIT     29.23     0  01:51      0.28    0.03    0.33
  HS02004862HS02004870 CONDUIT     26.75     0  01:51      0.52    0.03    0.07
  HS02004848HS02004852 CONDUIT     11.37     0  01:51      0.35    0.01    0.05
  HS02004856HS02004862 CONDUIT     18.17     0  01:51      0.38    0.02    0.07
  HS02004852HS02004856 CONDUIT     11.35     0  01:52      0.16    0.01    0.10
  HS02004802HS02004478 CONDUIT     68.53     0  02:17      0.36    0.06    0.28
  HS02004478WS02006287 CONDUIT    250.70     0  01:50      1.43    0.07    0.19
  HS02004817HS02004807 CONDUIT     53.46     0  02:17      0.14    0.03    0.54
  HS02004807HS02004802 CONDUIT     68.45     0  02:16      0.30    0.13    0.33
  YS02001759YS02001757 CONDUIT    464.51     0  02:58      0.59    0.33    1.00
  YS02001762YS02001759 CONDUIT    242.13     0  02:42      0.31    0.28    1.00
  YS02001765YS02001762 CONDUIT    239.40     0  02:42      0.30    0.22    1.00
  YS02001770YS02001767 CONDUIT    238.15     0  02:58      0.38    0.94    1.00
  YS02001774YS02001770 CONDUIT    100.08     0  03:18      0.24    0.06    1.00
  YS02001779YS02001774 CONDUIT    101.53     0  03:18      0.13    0.05    1.00
  YS02001649YS02001757 CONDUIT    727.22     0  02:52      0.93    0.44    1.00
  YS02001767YS02001765 CONDUIT    238.96     0  02:58      0.35    0.30    1.00
  YS02006561YS02001783 CONDUIT    753.43     0  03:03      2.12    0.39    0.85
  YS02001783YS02001784 CONDUIT    753.57     0  03:03      1.58    1.04    1.00
  YS02001784YS02001785 CONDUIT    754.46     0  03:03      1.71    1.76    1.00
  YS02001788YS02001790 CONDUIT    754.61     0  03:04      2.23    0.56    1.00
  YS02001790YS02001791 CONDUIT    754.83     0  03:04      2.69    0.82    1.00
  YS02001791YS02001793 CONDUIT    754.89     0  03:03      5.44    0.32    1.00
  YS02001910YS02001907 CONDUIT    270.80     0  03:18      0.49    0.15    1.00
  YS02001786YS02001788 CONDUIT    754.51     0  03:03      2.15    1.45    1.00
  YS02001915YS02001910 CONDUIT    267.57     0  03:09      0.56    0.13    0.92
  YS02001918YS02001915 CONDUIT    111.06     0  03:16      0.44    0.06    0.66
  YS02001923YS02001920 CONDUIT    102.68     0  03:05      0.64    0.05    0.42
  YS02001926YS02001923 CONDUIT     91.45     0  03:01      0.74    0.13    0.21
  YS02001929YS02001926 CONDUIT     91.54     0  03:01      0.81    0.04    0.20
  YS02001920YS02001918 CONDUIT    108.12     0  03:16      0.63    0.10    0.52
  YS02001629YS02163301 CONDUIT    198.50     0  02:39      0.25    0.24    1.00
  YS02001619YS02001622 CONDUIT    181.80     0  02:10      0.65    0.27    1.00
  YS02001622YS02001625 CONDUIT    196.25     0  02:23      0.32    0.10    1.00
  YS02001625YS02001629 CONDUIT    196.09     0  02:23      0.26    0.09    1.00
  YS02163301YS02001633 CONDUIT    200.18     0  02:39      0.25    0.19    1.00
  YS02163601YS02164001 CONDUIT    372.61     0  02:39      0.47    0.33    1.00
  YS02164001YS02001641 CONDUIT    375.93     0  02:39      0.48    0.51    1.00
  YS02001641YS02001644 CONDUIT    379.11     0  02:39      0.48    1.23    1.00
  YS02001647YS02001649 CONDUIT    551.21     0  02:39      0.70    0.29    1.00
  YS02006553YS02006556 CONDUIT    526.63     0  03:06      0.67    0.45    1.00
  YS02006556YS02006558 CONDUIT    526.66     0  03:07      0.67    0.42    1.00
  YSB6556YSB1171       CONDUIT     16.50     0  01:50      0.07    0.02    0.60
  YS02001907YS02006553 CONDUIT    526.61     0  03:06      0.59    0.62    1.00
  YS02006558YS02006561 CONDUIT    753.30     0  03:03      3.15    1.66    0.97
  YS02001633YS02163601 CONDUIT    371.77     0  02:39      0.47    0.39    1.00
  YS02001644YS02001647 CONDUIT    548.66     0  02:39      0.70    0.32    1.00
  YS02001745YS02001748 CONDUIT    520.80     0  02:41      1.51    0.20    0.93
  YS02001748YS02001751 CONDUIT    367.49     0  02:20      1.12    0.19    1.00
  YS02001751YS02001754 CONDUIT    230.16     0  02:43      0.97    0.11    1.00
  YS02001754YS02001757 CONDUIT    230.99     0  02:21      0.33    0.09    1.00
  YS02001882YS02001884 CONDUIT     16.42     0  02:15      0.12    0.02    0.86
  YS02001884YS02001887 CONDUIT     20.92     0  02:14      0.09    0.03    0.96
  YS02001890YS02001895 CONDUIT    267.94     0  02:59      0.44    0.12    0.90
  YS02001895YS02001898 CONDUIT    271.51     0  02:24      0.57    0.47    0.79
  YS02001898YS02001901 CONDUIT    266.74     0  02:27      0.48    0.17    0.88
  YS02001901YS02001904 CONDUIT    264.14     0  03:02      0.44    0.41    0.93
  YS02001904YS02001907 CONDUIT    269.51     0  02:25      0.38    0.09    0.96
  YS02001887YS02001890 CONDUIT    268.92     0  02:59      0.39    0.46    1.00
  YS02001652YS02001649 CONDUIT    270.12     0  02:32      0.58    0.13    1.00
  YS02001655YS02001652 CONDUIT    270.09     0  02:32      1.05    0.13    1.00
  YS02001658YS02001655 CONDUIT    414.30     0  02:25      1.29    0.18    1.00
  YS02001661YS02001658 CONDUIT    615.48     0  02:33      1.59    0.24    1.00
  YS02001664YS02001661 CONDUIT    598.69     0  02:54      1.52    0.19    0.71
  YSB1154YSB6556       CONDUIT     16.24     0  01:49      0.16    0.03    0.49
  YSB1174YSB1171       CONDUIT     13.24     0  01:45      0.06    0.02    0.61
  YSB1171HS02004479    CONDUIT     29.01     0  01:50      0.54    0.02    0.47
  HS02004881HS02006253 CONDUIT     49.92     0  01:50      1.76    0.01    0.28
  YS02001793JiankangQianchi CONDUIT    911.49     0  02:18     11.97    0.07    1.00
  YS02001757CaochengTiaoxuchi CONDUIT   1353.07     0  02:53      2.34    0.59    1.00
  WSF200WS02003060     CONDUIT    588.71     0  02:04      1.79    0.13    0.34
  1                    CONDUIT    890.51     0  02:04      3.22    0.31    0.38
  2                    CONDUIT    192.71     0  01:58      5.79    0.46    0.48
  3                    CONDUIT    525.96     0  02:00      9.88    0.84    0.71
  4                    CONDUIT      0.00     0  00:00      0.00    0.00    0.00
  CC-Pump-1            PUMP       200.00     0  01:50              1.00
  CC-Pump-2            PUMP       200.00     0  01:43              1.00
  JK-Pump-1            PUMP       300.00     0  01:50              1.00
  JK-Pump-2            PUMP       300.00     0  00:00              1.00
  XR-Pump-1            PUMP        95.00     0  00:20              1.00
  XR-Pump-2            PUMP        95.00     0  01:00              1.00
  XR-Pump-3            PUMP        95.00     0  01:20              1.00
  XR-Pump-4            PUMP        95.00     0  00:30              1.00
  
  
  ***************************
  Flow Classification Summary
  ***************************
  
  -------------------------------------------------------------------------------------
                      Adjusted    ---------- Fraction of Time in Flow Class ---------- 
                       /Actual         Up    Down  Sub   Sup   Up    Down  Norm  Inlet 
  Conduit               Length    Dry  Dry   Dry   Crit  Crit  Crit  Crit  Ltd   Ctrl  
  -------------------------------------------------------------------------------------
  WS02003066WSF200        1.00   0.04  0.01  0.00  0.00  0.94  0.00  0.00  0.62  0.00
  WS02006287WS02006284    1.00   0.04  0.01  0.00  0.58  0.37  0.00  0.00  0.70  0.00
  WS02006284WS02006280    1.00   0.04  0.00  0.00  0.00  0.00  0.00  0.96  0.00  0.00
  WS02006280WS02006229    1.00   0.04  0.00  0.00  0.00  0.00  0.00  0.96  0.00  0.00
  WS02006229WS02006228    1.00   0.00  0.00  0.00  0.99  0.00  0.00  0.01  0.00  0.00
  WS02006256WS02006235    1.00   0.00  0.00  0.00  1.00  0.00  0.00  0.00  0.00  0.00
  WS02006253WS02006251    1.00   0.03  0.01  0.00  0.96  0.00  0.00  0.00  0.00  0.00
  WS02006252WS02006251    1.00   0.06  0.00  0.00  0.00  0.00  0.94  0.00  0.00  0.00
  WS02006251WS02006249    1.00   0.00  0.00  0.00  1.00  0.00  0.00  0.00  0.19  0.00
  WS02006249WS02006248    1.00   0.00  0.02  0.00  0.92  0.00  0.06  0.00  0.00  0.00
  WS02006248WS02006247    1.00   0.02  0.00  0.00  0.98  0.00  0.00  0.00  0.08  0.00
  WS02006247WS02006245    1.00   0.02  0.00  0.00  0.98  0.00  0.00  0.00  0.00  0.00
  WS02006245WS02006243    1.00   0.01  0.00  0.00  0.96  0.00  0.00  0.03  0.01  0.00
  WS02006243WS02006242    1.00   0.01  0.00  0.00  0.99  0.00  0.00  0.00  0.16  0.00
  WS02006242WS02006240    1.00   0.00  0.00  0.00  1.00  0.00  0.00  0.00  0.00  0.00
  WS02006240WS02006239    1.00   0.00  0.00  0.00  0.97  0.00  0.00  0.02  0.01  0.00
  WS02006239WS02006238    1.00   0.00  0.00  0.00  1.00  0.00  0.00  0.00  0.02  0.00
  WS02006238WS02006235    1.00   0.00  0.00  0.00  1.00  0.00  0.00  0.00  0.00  0.00
  WS02006235WS02006234    1.00   0.00  0.00  0.00  0.97  0.00  0.03  0.00  0.00  0.00
  WS02006234WS02006232    1.00   0.00  0.00  0.00  1.00  0.00  0.00  0.00  0.07  0.00
  WS02006232WS02006231    1.00   0.00  0.00  0.00  0.99  0.00  0.00  0.00  0.00  0.00
  WS02006231WS02006230    1.00   0.00  0.00  0.00  0.57  0.00  0.43  0.00  0.00  0.00
  WS02006230WS02006229    1.00   0.00  0.00  0.00  0.99  0.00  0.00  0.01  0.01  0.00
  WS02006228WS02006109    1.00   0.00  0.00  0.00  1.00  0.00  0.00  0.00  0.00  0.00
  WS02006116WS02004401    1.00   0.02  0.00  0.00  0.98  0.00  0.00  0.00  0.00  0.00
  WS02006115WS02006116    1.00   0.02  0.00  0.00  0.97  0.00  0.00  0.01  0.00  0.00
  WS02006113WS02006111    1.00   0.02  0.00  0.00  0.00  0.98  0.00  0.00  0.11  0.00
  WS02006112WS02006115    1.00   0.02  0.00  0.00  0.98  0.00  0.00  0.00  0.00  0.00
  WS02006111WS02006112    1.00   0.02  0.00  0.00  0.98  0.00  0.00  0.00  0.98  0.00
  WS02006110WS02006113    1.00   0.01  0.01  0.00  0.98  0.00  0.00  0.00  0.00  0.00
  WS02006109WS02006110    1.00   0.00  0.01  0.00  0.98  0.00  0.01  0.00  0.00  0.00
  WS02004411WS02004412    1.00   0.04  0.00  0.00  0.96  0.00  0.00  0.00  0.00  0.00
  WS02004401WS02004402    1.00   0.02  0.00  0.00  0.98  0.00  0.00  0.00  0.00  0.00
  WS02004413WS02003067    1.00   0.04  0.01  0.00  0.00  0.00  0.95  0.00  0.00  0.00
  WS02004412WS02004413    1.00   0.04  0.00  0.00  0.96  0.00  0.00  0.00  0.03  0.00
  WS02004410WS02004411    1.00   0.03  0.00  0.00  0.97  0.00  0.00  0.00  0.03  0.00
  WS02004409WS02004410    1.00   0.03  0.00  0.00  0.97  0.00  0.00  0.00  0.03  0.00
  WS02004407WS02004409    1.00   0.03  0.00  0.00  0.96  0.00  0.00  0.00  0.89  0.00
  WS02004406WS02004407    1.00   0.00  0.03  0.00  0.97  0.00  0.00  0.00  0.00  0.00
  WS02004405WS02004406    1.00   0.00  0.00  0.00  1.00  0.00  0.00  0.00  0.01  0.00
  WS02004404WS02004405    1.00   0.00  0.00  0.00  1.00  0.00  0.00  0.00  0.00  0.00
  WS02004403WS02004404    1.00   0.00  0.02  0.00  0.98  0.00  0.00  0.00  0.01  0.00
  WS02004402WS02004403    1.00   0.02  0.00  0.00  0.98  0.00  0.00  0.00  0.00  0.00
  WS02004139WS02001211    1.00   0.00  0.01  0.00  0.99  0.00  0.00  0.00  0.00  0.00
  WS02004138WS02004139    1.00   0.02  0.00  0.00  0.98  0.00  0.00  0.00  0.98  0.00
  WS02003067WS02003066    1.00   0.05  0.01  0.00  0.94  0.00  0.00  0.00  0.00  0.00
  WS02001213WS02003059    1.00   0.00  0.01  0.00  0.99  0.00  0.00  0.00  0.00  0.00
  WS02001212WS02001213    1.00   0.02  0.00  0.00  0.84  0.00  0.13  0.00  0.00  0.00
  WS02001211WS02001212    1.00   0.00  0.02  0.00  0.98  0.00  0.00  0.00  0.00  0.00
  WS02003072WS02003073    1.00   0.00  0.00  0.00  0.00  0.00  0.00  1.00  0.00  0.00
  WS02003069WS02003072    1.00   0.00  0.00  0.00  0.99  0.01  0.00  0.00  0.19  0.00
  WS02003060WS02003069    1.00   0.00  0.00  0.00  0.99  0.01  0.00  0.00  0.10  0.00
  WS02003059WS02003060    1.00   0.00  0.00  0.00  1.00  0.00  0.00  0.00  0.04  0.00
  HS02004901HS02004770    1.00   0.04  0.00  0.00  0.96  0.00  0.00  0.00  0.00  0.00
  HS02004876HS02004881    1.00   0.02  0.00  0.00  0.98  0.00  0.00  0.00  0.00  0.00
  HS02004870HS02004876    1.00   0.01  0.00  0.00  0.99  0.00  0.00  0.00  0.95  0.00
  HS02004842HS02004848    1.00   0.00  0.04  0.00  0.96  0.00  0.00  0.00  0.58  0.00
  HS02004837HS02004842    1.00   0.00  0.00  0.00  0.99  0.01  0.00  0.00  0.11  0.00
  HS02004830HS02004837    1.00   0.00  0.00  0.00  1.00  0.00  0.00  0.00  0.99  0.00
  HS02004824HS02004830    1.00   0.00  0.00  0.00  1.00  0.00  0.00  0.00  0.00  0.00
  HS02004817HS02004824    1.00   0.00  0.00  0.00  1.00  0.00  0.00  0.00  1.00  0.00
  HS02004770HS02004777    1.00   0.00  0.04  0.00  0.96  0.00  0.00  0.00  0.03  0.00
  HS02004799HS02004480    1.00   0.00  0.02  0.00  0.96  0.00  0.02  0.00  0.00  0.00
  HS02004792HS02004799    1.00   0.00  0.00  0.00  0.99  0.01  0.00  0.00  0.98  0.00
  HS02004788HS02004792    1.00   0.00  0.00  0.00  0.99  0.01  0.00  0.00  0.98  0.00
  HS02004785HS02004788    1.00   0.00  0.00  0.00  1.00  0.00  0.00  0.00  0.00  0.00
  HS02004777HS02004785    1.00   0.00  0.00  0.00  1.00  0.00  0.00  0.00  0.12  0.00
  HS02004480HS02004478    1.00   0.04  0.00  0.00  0.63  0.00  0.00  0.33  0.00  0.00
  HS02004479HS02004480    1.00   0.02  0.00  0.00  0.98  0.00  0.00  0.00  0.12  0.00
  HS02004862HS02004870    1.00   0.00  0.00  0.00  1.00  0.00  0.00  0.00  0.04  0.00
  HS02004848HS02004852    1.00   0.04  0.00  0.00  0.96  0.00  0.00  0.00  0.77  0.00
  HS02004856HS02004862    1.00   0.00  0.05  0.00  0.95  0.00  0.00  0.00  0.83  0.00
  HS02004852HS02004856    1.00   0.04  0.00  0.00  0.96  0.00  0.00  0.00  0.86  0.00
  HS02004802HS02004478    1.00   0.04  0.00  0.00  0.96  0.00  0.00  0.00  0.03  0.00
  HS02004478WS02006287    1.00   0.04  0.00  0.00  0.71  0.25  0.00  0.00  0.68  0.00
  HS02004817HS02004807    1.00   0.00  0.04  0.00  0.96  0.00  0.00  0.00  0.01  0.00
  HS02004807HS02004802    1.00   0.04  0.00  0.00  0.96  0.00  0.00  0.00  0.00  0.00
  YS02001759YS02001757    1.00   0.00  0.00  0.00  1.00  0.00  0.00  0.00  0.16  0.00
  YS02001762YS02001759    1.00   0.00  0.00  0.00  1.00  0.00  0.00  0.00  0.03  0.00
  YS02001765YS02001762    1.00   0.00  0.00  0.00  1.00  0.00  0.00  0.00  0.14  0.00
  YS02001770YS02001767    1.00   0.00  0.00  0.00  1.00  0.00  0.00  0.00  0.00  0.00
  YS02001774YS02001770    1.00   0.00  0.04  0.00  0.96  0.00  0.00  0.00  0.03  0.00
  YS02001779YS02001774    1.00   0.00  0.00  0.00  1.00  0.00  0.00  0.00  0.18  0.00
  YS02001649YS02001757    1.00   0.00  0.00  0.00  1.00  0.00  0.00  0.00  0.16  0.00
  YS02001767YS02001765    1.00   0.00  0.00  0.00  1.00  0.00  0.00  0.00  0.00  0.00
  YS02006561YS02001783    1.00   0.05  0.00  0.00  0.31  0.64  0.00  0.00  0.60  0.00
  YS02001783YS02001784    1.00   0.00  0.05  0.00  0.95  0.00  0.00  0.00  0.00  0.00
  YS02001784YS02001785    1.00   0.00  0.00  0.00  1.00  0.00  0.00  0.00  0.17  0.00
  YS02001788YS02001790    1.00   0.00  0.00  0.00  0.39  0.61  0.00  0.00  0.53  0.00
  YS02001790YS02001791    1.00   0.00  0.00  0.00  0.37  0.63  0.00  0.00  0.51  0.00
  YS02001791YS02001793    1.00   0.00  0.00  0.00  0.37  0.63  0.00  0.00  0.02  0.00
  YS02001910YS02001907    1.00   0.00  0.00  0.00  0.98  0.00  0.00  0.02  0.12  0.00
  YS02001786YS02001788    1.00   0.00  0.00  0.00  0.37  0.63  0.00  0.00  0.00  0.00
  YS02001915YS02001910    1.00   0.00  0.00  0.00  0.99  0.01  0.00  0.00  0.16  0.00
  YS02001918YS02001915    1.00   0.00  0.01  0.00  0.98  0.01  0.00  0.00  0.60  0.00
  YS02001923YS02001920    1.00   0.00  0.00  0.00  1.00  0.00  0.00  0.00  0.93  0.00
  YS02001926YS02001923    1.00   0.00  0.03  0.00  0.00  0.00  0.97  0.00  0.00  0.00
  YS02001929YS02001926    1.00   0.00  0.04  0.00  0.96  0.00  0.00  0.00  0.87  0.00
  YS02001920YS02001918    1.00   0.00  0.01  0.00  0.99  0.00  0.00  0.00  0.00  0.00
  YS02001629YS02163301    1.00   0.04  0.00  0.00  0.95  0.00  0.00  0.00  0.00  0.00
  YS02001619YS02001622    1.00   0.04  0.00  0.00  0.96  0.00  0.00  0.00  0.00  0.00
  YS02001622YS02001625    1.00   0.04  0.00  0.00  0.96  0.00  0.00  0.00  0.04  0.00
  YS02001625YS02001629    1.00   0.04  0.01  0.00  0.94  0.00  0.01  0.00  0.00  0.00
  YS02163301YS02001633    1.00   0.00  0.04  0.00  0.96  0.00  0.00  0.00  0.00  0.00
  YS02163601YS02164001    1.00   0.00  0.03  0.00  0.97  0.00  0.00  0.00  0.00  0.00
  YS02164001YS02001641    1.00   0.01  0.02  0.00  0.97  0.00  0.00  0.00  0.06  0.00
  YS02001641YS02001644    1.00   0.00  0.01  0.00  0.99  0.00  0.00  0.00  0.00  0.00
  YS02001647YS02001649    1.00   0.00  0.05  0.00  0.95  0.00  0.00  0.00  0.01  0.00
  YS02006553YS02006556    1.00   0.01  0.00  0.00  0.99  0.00  0.00  0.00  0.03  0.00
  YS02006556YS02006558    1.00   0.00  0.00  0.00  1.00  0.00  0.00  0.00  0.00  0.00
  YSB6556YSB1171          1.00   0.03  0.01  0.00  0.96  0.00  0.00  0.00  0.00  0.00
  YS02001907YS02006553    1.00   0.00  0.02  0.00  0.98  0.00  0.00  0.00  0.00  0.00
  YS02006558YS02006561    1.00   0.05  0.00  0.00  0.07  0.88  0.00  0.00  0.52  0.00
  YS02001633YS02163601    1.00   0.00  0.01  0.00  0.99  0.00  0.00  0.00  0.15  0.00
  YS02001644YS02001647    1.00   0.00  0.05  0.00  0.95  0.00  0.00  0.00  0.00  0.00
  YS02001745YS02001748    1.00   0.00  0.00  0.00  0.91  0.01  0.00  0.08  0.06  0.00
  YS02001748YS02001751    1.00   0.00  0.00  0.00  0.98  0.02  0.00  0.00  0.14  0.00
  YS02001751YS02001754    1.00   0.00  0.00  0.00  0.95  0.00  0.00  0.05  0.02  0.00
  YS02001754YS02001757    1.00   0.00  0.00  0.00  0.99  0.01  0.00  0.00  0.18  0.00
  YS02001882YS02001884    1.00   0.04  0.00  0.00  0.96  0.00  0.00  0.00  0.00  0.00
  YS02001884YS02001887    1.00   0.03  0.01  0.00  0.96  0.00  0.00  0.00  0.00  0.00
  YS02001890YS02001895    1.00   0.00  0.04  0.00  0.96  0.00  0.00  0.00  0.00  0.00
  YS02001895YS02001898    1.00   0.04  0.00  0.00  0.95  0.00  0.01  0.00  0.00  0.00
  YS02001898YS02001901    1.00   0.05  0.00  0.00  0.95  0.00  0.00  0.00  0.01  0.00
  YS02001901YS02001904    1.00   0.05  0.00  0.00  0.95  0.00  0.00  0.00  0.00  0.00
  YS02001904YS02001907    1.00   0.00  0.04  0.00  0.95  0.00  0.00  0.00  0.00  0.00
  YS02001887YS02001890    1.00   0.00  0.00  0.00  0.98  0.00  0.02  0.00  0.00  0.00
  YS02001652YS02001649    1.00   0.00  0.00  0.00  1.00  0.00  0.00  0.00  0.16  0.00
  YS02001655YS02001652    1.00   0.00  0.00  0.00  0.95  0.00  0.00  0.05  0.02  0.00
  YS02001658YS02001655    1.00   0.00  0.04  0.00  0.94  0.02  0.00  0.00  0.05  0.00
  YS02001661YS02001658    1.00   0.04  0.00  0.00  0.90  0.05  0.00  0.00  0.06  0.00
  YS02001664YS02001661    1.00   0.04  0.00  0.00  0.84  0.12  0.00  0.00  0.22  0.00
  YSB1154YSB6556          1.00   0.04  0.00  0.00  0.96  0.00  0.00  0.00  0.02  0.00
  YSB1174YSB1171          1.00   0.03  0.01  0.00  0.97  0.00  0.00  0.00  0.00  0.00
  YSB1171HS02004479       1.00   0.03  0.00  0.00  0.97  0.00  0.00  0.00  0.10  0.00
  HS02004881HS02006253    1.00   0.03  0.00  0.00  0.81  0.02  0.00  0.15  0.67  0.00
  YS02001793JiankangQianchi    1.00   0.00  0.00  0.00  0.59  0.41  0.00  0.00  0.23  0.00
  YS02001757CaochengTiaoxuchi    1.00   0.00  0.06  0.00  0.91  0.03  0.00  0.00  0.00  0.00
  WSF200WS02003060        1.00   0.00  0.04  0.00  0.61  0.35  0.00  0.00  0.19  0.00
  1                       1.00   0.00  0.00  0.00  0.00  1.00  0.00  0.00  0.43  0.00
  2                       1.00   0.67  0.00  0.00  0.00  0.33  0.00  0.00  0.09  0.00
  3                       1.00   0.15  0.00  0.00  0.00  0.85  0.00  0.00  0.25  0.00
  4                       1.00   1.00  0.00  0.00  0.00  0.00  0.00  0.00  0.00  0.00
  
  
  *************************
  Conduit Surcharge Summary
  *************************
  
  ----------------------------------------------------------------------------
                                                           Hours        Hours 
                         --------- Hours Full --------   Above Full   Capacity
  Conduit                Both Ends  Upstream  Dnstream   Normal Flow   Limited
  ----------------------------------------------------------------------------
  WS02006229WS02006228        2.08      2.32      2.08      4.93         2.07
  WS02006256WS02006235        6.36      6.36      7.24      3.57         0.01
  WS02006253WS02006251        0.01      0.01      0.16      0.01         0.01
  WS02006252WS02006251        0.74      0.74      1.75      1.50         0.01
  WS02006251WS02006249        0.01      0.01      0.01      0.91         0.01
  WS02006249WS02006248        0.01      0.01      0.01      4.85         0.01
  WS02006248WS02006247        0.01      0.01      0.03      0.01         0.01
  WS02006247WS02006245        0.01      0.13      0.01      5.31         0.01
  WS02006245WS02006243        0.01      0.01      0.20      0.02         0.01
  WS02006243WS02006242        0.24      0.24      1.06      0.01         0.01
  WS02006242WS02006240        0.56      0.56      1.63      1.74         0.01
  WS02006240WS02006239        0.68      0.68      0.82      0.03         0.01
  WS02006239WS02006238        1.57      1.57      1.70      0.04         0.01
  WS02006238WS02006235        1.60      1.60      1.92      0.01         0.01
  WS02006235WS02006234        0.82      0.82      1.43      6.33         0.01
  WS02006234WS02006232        1.08      1.08      2.07      0.01         0.01
  WS02006232WS02006231        0.31      0.31      2.07      0.01         0.01
  WS02006231WS02006230        0.01      0.01      0.41      6.37         0.01
  WS02006230WS02006229        2.96      4.45      2.96      6.46         2.95
  WS02006228WS02006109        2.19      2.61      2.19      5.74         2.19
  WS02006112WS02006115        0.01      0.01      1.27      0.01         0.01
  WS02006111WS02006112        0.01      0.01      4.97      0.01         0.01
  WS02006110WS02006113        0.01      0.01      2.45      0.01         0.01
  WS02006109WS02006110        0.87      0.87      2.61      0.88         0.01
  WS02004405WS02004406        0.01      0.01      0.01      1.14         0.01
  WS02004404WS02004405        0.01      0.01      0.01      6.25         0.01
  WS02003072WS02003073        0.01      0.01      0.01      5.27         0.01
  YS02001759YS02001757        5.96      5.96      6.03      0.01         0.01
  YS02001762YS02001759        5.94      5.94      5.96      0.01         0.01
  YS02001765YS02001762        5.90      5.90      5.94      0.01         0.01
  YS02001770YS02001767        5.74      5.75      5.75      0.01         0.78
  YS02001774YS02001770        5.72      5.72      5.93      0.01         0.01
  YS02001779YS02001774        5.55      5.55      5.93      0.01         0.01
  YS02001649YS02001757        5.94      5.94      6.03      0.01         0.01
  YS02001767YS02001765        5.75      5.75      5.90      0.01         0.01
  YS02006561YS02001783        0.01      0.01      1.05      0.01         0.01
  YS02001783YS02001784        1.05      1.05      1.12      0.31         0.30
  YS02001784YS02001785        1.06      1.12      1.06      1.91         1.06
  YS02001788YS02001790        1.04      1.04      1.93      0.01         0.01
  YS02001790YS02001791        1.93      1.93      2.00      0.01         0.01
  YS02001791YS02001793        2.00      2.00      2.25      0.01         0.01
  YS02001910YS02001907        0.21      0.21      1.22      0.01         0.01
  YS02001786YS02001788        1.04      1.06      1.04      1.43         1.04
  YS02001915YS02001910        0.01      0.01      0.21      0.01         0.01
  YS02001629YS02163301        5.71      5.71      5.75      0.01         0.01
  YS02001619YS02001622        5.30      5.30      5.37      0.01         0.02
  YS02001622YS02001625        5.37      5.37      5.69      0.01         0.01
  YS02001625YS02001629        5.34      5.34      5.69      0.01         0.01
  YS02163301YS02001633        5.75      5.75      5.91      0.01         0.01
  YS02163601YS02164001        5.89      5.89      5.95      0.01         0.01
  YS02164001YS02001641        5.89      5.89      5.92      0.01         0.03
  YS02001641YS02001644        5.92      5.92      5.93      0.66         1.09
  YS02001647YS02001649        5.67      5.67      5.94      0.01         0.01
  YS02006553YS02006556        0.68      0.68      1.31      0.01         0.01
  YS02006556YS02006558        1.00      1.00      1.40      0.01         0.01
  YS02001907YS02006553        1.92      1.92      2.14      0.01         0.01
  YS02006558YS02006561        0.01      0.59      0.01      1.76         0.01
  YS02001633YS02163601        5.86      5.86      5.95      0.01         0.01
  YS02001644YS02001647        5.67      5.67      5.93      0.01         0.01
  YS02001745YS02001748        0.01      0.01      5.03      0.01         0.01
  YS02001748YS02001751        5.10      5.10      5.33      0.01         0.01
  YS02001751YS02001754        5.33      5.33      5.57      0.01         0.01
  YS02001754YS02001757        5.65      5.65      6.03      0.01         0.01
  YS02001890YS02001895        0.01      0.01      0.26      0.01         0.01
  YS02001904YS02001907        0.01      0.01      1.33      0.01         0.01
  YS02001887YS02001890        0.02      0.02      0.15      0.01         0.01
  YS02001652YS02001649        5.68      5.68      5.94      0.01         0.01
  YS02001655YS02001652        5.35      5.35      5.63      0.01         0.01
  YS02001658YS02001655        5.06      5.06      5.35      0.01         0.01
  YS02001661YS02001658        0.17      0.17      5.06      0.01         0.01
  YS02001664YS02001661        0.01      0.01      1.00      0.01         0.01
  YS02001793JiankangQianchi        2.22      2.22      3.14      0.01         0.01
  YS02001757CaochengTiaoxuchi        4.97      4.97      6.03      0.01         0.01
  
  
  ***************
  Pumping Summary
  ***************
  
  ---------------------------------------------------------------------------------------------------------
                                                  Min       Avg       Max     Total     Power    % Time Off
                        Percent   Number of      Flow      Flow      Flow    Volume     Usage    Pump Curve
  Pump                 Utilized   Start-Ups       LPS       LPS       LPS  10^6 ltr     Kw-hr    Low   High
  ---------------------------------------------------------------------------------------------------------
  CC-Pump-1               63.82           8      0.00    130.04    200.00     2.340      3.82    0.0   12.9
  CC-Pump-2               59.85           4      0.00    147.69    200.00     2.447      3.92    0.0   14.2
  JK-Pump-1               87.22           6      0.00    160.01    300.00     3.164     37.74    0.0    0.0
  JK-Pump-2               74.47          10      0.00    145.58    300.00     2.640     32.92    0.0    0.0
  XR-Pump-1               72.32           7      0.00     63.07     95.00     1.311      8.36    0.0    0.0
  XR-Pump-2               87.22           8      0.00     68.59     95.00     1.624      9.24    0.0    0.0
  XR-Pump-3               74.45           9      0.00     67.15     95.00     1.368      8.12    0.0    0.0
  XR-Pump-4               85.09           9      0.00     64.88     95.00     1.653     10.46    0.0    0.0
  

  Analysis begun on:  Wed Dec 15 17:04:14 2021
  Analysis ended on:  Wed Dec 15 17:04:18 2021
  Total elapsed time: 00:00:04