
  EPA STORM WATER MANAGEMENT MODEL - VERSION 5.1 (Build 5.3.0.dev0)
  --------------------------------------------------------------

  WARNING 04: minimum elevation drop used for Conduit WS02004404WS02004405
  WARNING 03: negative offset ignored for Link YS02001904YS02001907
  
  *********************************************************
  NOTE: The summary statistics displayed in this report are
  based on results found at every computational time step,  
  not just on results from each reporting time step.
  *********************************************************
  
  ****************
  Analysis Options
  ****************
  Flow Units ............... LPS
  Process Models:
    Rainfall/Runoff ........ YES
    RDII ................... NO
    Snowmelt ............... NO
    Groundwater ............ NO
    Flow Routing ........... YES
    Ponding Allowed ........ NO
    Water Quality .......... NO
  Infiltration Method ...... HORTON
  Flow Routing Method ...... DYNWAVE
  Surcharge Method ......... EXTRAN
  Starting Date ............ 08/28/2015 08:00:00
  Ending Date .............. 08/28/2015 15:50:00
  Antecedent Dry Days ...... 8.0
  Report Time Step ......... 00:01:00
  Wet Time Step ............ 00:01:00
  Dry Time Step ............ 00:01:00
  Routing Time Step ........ 5.00 sec
  Variable Time Step ....... YES
  Maximum Trials ........... 8
  Number of Threads ........ 4
  Head Tolerance ........... 0.001500 m
  
  
  **************************        Volume         Depth
  Runoff Quantity Continuity     hectare-m            mm
  **************************     ---------       -------
  Total Precipitation ......         6.144        13.452
  Evaporation Loss .........         0.000         0.000
  Infiltration Loss ........         1.572         3.442
  Surface Runoff ...........         3.480         7.619
  Final Storage ............         1.093         2.393
  Continuity Error (%) .....        -0.016
  
  
  **************************        Volume        Volume
  Flow Routing Continuity        hectare-m      10^6 ltr
  **************************     ---------     ---------
  Dry Weather Inflow .......         0.616         6.165
  Wet Weather Inflow .......         3.479        34.790
  Groundwater Inflow .......         0.000         0.000
  RDII Inflow ..............         0.000         0.000
  External Inflow ..........         0.102         1.024
  External Outflow .........         1.901        19.009
  Flooding Loss ............         1.789        17.886
  Evaporation Loss .........         0.000         0.000
  Exfiltration Loss ........         0.000         0.000
  Initial Stored Volume ....         0.076         0.761
  Final Stored Volume ......         0.631         6.308
  Continuity Error (%) .....        -1.086
  
  
  *************************
  Highest Continuity Errors
  *************************
  Node HS02004842 (15.27%)
  Node YS02001884 (11.88%)
  Node JK-storage (-4.28%)
  Node YSB1171 (2.79%)
  Node HS02004817 (2.78%)
  
  
  ***************************
  Time-Step Critical Elements
  ***************************
  Link 3 (49.88%)
  Link WS02006252WS02006251 (40.07%)
  Link WS02006238WS02006235 (2.12%)
  Link WS02006280WS02006229 (2.05%)
  Link YS02006556YS02006558 (1.28%)
  
  
  ********************************
  Highest Flow Instability Indexes
  ********************************
  Link YS02163601YS02164001 (37)
  Link YS02163301YS02001633 (37)
  Link YS02001629YS02163301 (36)
  Link YS02001619YS02001622 (35)
  Link YS02164001YS02001641 (34)
  
  
  *************************
  Routing Time Step Summary
  *************************
  Minimum Time Step           :     0.06 sec
  Average Time Step           :     0.86 sec
  Maximum Time Step           :     5.00 sec
  Percent in Steady State     :    -0.00
  Average Iterations per Step :     4.24
  Percent Not Converging      :    17.81
  
  
  ***************************
  Subcatchment Runoff Summary
  ***************************
  
  ------------------------------------------------------------------------------------------------------------------------------
                            Total      Total      Total      Total     Imperv       Perv      Total       Total     Peak  Runoff
                           Precip      Runon       Evap      Infil     Runoff     Runoff     Runoff      Runoff   Runoff   Coeff
  Subcatchment                 mm         mm         mm         mm         mm         mm         mm    10^6 ltr      LPS
  ------------------------------------------------------------------------------------------------------------------------------
  sub0                      13.45       0.00       0.00       0.89      11.25       0.05      11.30        0.01     3.67   0.840
  sub1                      13.45       0.00       0.00       1.45      10.71       0.03      10.74        0.07    24.31   0.799
  sub2                      13.45       0.00       0.00       4.95       7.56       0.02       7.58        0.07    22.93   0.564
  sub3                      13.45       0.00       0.00       4.96       7.52       0.02       7.54        0.17    51.30   0.560
  sub4                      13.45       0.00       0.00       1.46      10.54       0.02      10.56        0.22    61.94   0.785
  sub5                      13.45       0.00       0.00       0.91      11.19       0.03      11.22        0.13    43.21   0.834
  sub7                      13.45       0.00       0.00       1.17      10.98       0.04      11.03        0.04    13.69   0.820
  sub8                      13.45       0.00       0.00       1.17      10.97       0.04      11.01        0.07    25.15   0.819
  sub9                      13.45       0.00       0.00       1.17      10.97       0.04      11.01        0.05    18.81   0.818
  sub10                     13.45       0.00       0.00       1.04      11.08       0.03      11.11        0.12    42.29   0.826
  sub11                     13.45       0.00       0.00       1.04      11.10       0.04      11.14        0.13    46.68   0.828
  sub12                     13.45       0.00       0.00       1.69      10.51       0.06      10.58        0.09    35.94   0.786
  sub14                     13.45       0.00       0.00       1.17      10.97       0.04      11.01        0.10    37.02   0.818
  sub15                     13.45       0.00       0.00       4.00       8.43       0.04       8.47        0.15    51.03   0.630
  sub16                     13.45       0.00       0.00       4.38       8.09       0.06       8.15        0.09    32.58   0.606
  sub17                     13.45       0.00       0.00       4.25       8.21       0.06       8.27        0.07    26.73   0.615
  sub22                     13.45       0.00       0.00       5.74       6.88       0.04       6.92        0.44   159.06   0.514
  sub23                     13.45       0.00       0.00       4.93       7.60       0.05       7.65        0.36   133.95   0.569
  sub60                     13.45       0.00       0.00       1.61       8.73       0.00       8.74        2.65   387.96   0.649
  sub61                     13.45       0.00       0.00       2.28       8.88       0.00       8.88        2.74   483.52   0.660
  sub62                     13.45       0.00       0.00       1.07       9.65       0.00       9.66        2.97   496.42   0.718
  sub63                     13.45       0.00       0.00       3.90       7.77       0.00       7.77        2.35   446.68   0.578
  sub64                     13.45       0.00       0.00       2.01       8.38       0.00       8.38        2.55   368.35   0.623
  sub65                     13.45       0.00       0.00       1.75       8.52       0.00       8.52        2.62   373.60   0.634
  sub66                     13.45       0.00       0.00       3.90       7.19       0.00       7.19        2.21   337.96   0.535
  sub67                     13.45       0.00       0.00       1.07      10.19       0.01      10.19        3.15   622.58   0.758
  sub68                     13.45       0.00       0.00       1.88       9.34       0.01       9.34        2.87   531.38   0.694
  sub69                     13.45       0.00       0.00       2.01       9.68       0.01       9.69        2.26   503.32   0.720
  sub70                     13.45       9.89       0.00       7.67      12.93       0.26      13.20        3.02   423.72   0.565
  sub71                     13.45       0.00       0.00       1.07       9.40       0.00       9.40        2.22   347.35   0.699
  sub72                     13.45       0.00       0.00       0.94       7.49       0.00       7.50        1.53   163.23   0.557
  sub73                     13.45      12.84       0.00       8.67      14.26       0.27      14.53        3.41   375.92   0.552
  sub74                     13.45       0.00       0.00      10.09       2.88       0.00       2.89        1.15   273.25   0.215
  
  
  ******************
  Node Depth Summary
  ******************
  
  ---------------------------------------------------------------------------------
                                 Average  Maximum  Maximum  Time of Max    Reported
                                   Depth    Depth      HGL   Occurrence   Max Depth
  Node                 Type       Meters   Meters   Meters  days hr:min      Meters
  ---------------------------------------------------------------------------------
  WS02001211           JUNCTION     0.64     0.81     5.65     0  02:50        0.81
  WS02001212           JUNCTION     0.37     0.53     5.59     0  02:50        0.53
  WS02001213           JUNCTION     0.61     0.79     5.55     0  02:51        0.79
  WS02003069           JUNCTION     0.44     0.63     5.22     0  02:52        0.63
  WS02003072           JUNCTION     0.51     0.68     5.06     0  02:53        0.68
  WS02003073           JUNCTION     0.30     0.42     4.49     0  02:53        0.42
  WS02003060           JUNCTION     0.39     0.56     5.49     0  02:52        0.56
  WS02003066           JUNCTION     0.24     0.35     5.91     0  03:05        0.35
  WS02003059           JUNCTION     0.67     0.84     5.53     0  02:51        0.84
  WS02003067           JUNCTION     0.59     0.78     6.10     0  03:05        0.78
  WS02004401           JUNCTION     0.71     1.09     7.09     0  03:03        1.09
  WS02004402           JUNCTION     0.74     1.10     7.06     0  03:03        1.10
  WS02004403           JUNCTION     0.76     1.09     7.02     0  03:03        1.09
  WS02004404           JUNCTION     0.83     1.14     6.99     0  03:03        1.14
  WS02004406           JUNCTION     0.83     1.10     6.93     0  03:03        1.09
  WS02004409           JUNCTION     0.52     0.84     6.61     0  03:04        0.84
  WS02004410           JUNCTION     0.54     0.84     6.56     0  03:04        0.84
  WS02004411           JUNCTION     0.55     0.83     6.51     0  03:05        0.83
  WS02004412           JUNCTION     0.56     0.82     6.46     0  03:05        0.82
  WS02004413           JUNCTION     0.72     0.97     6.44     0  03:05        0.97
  WS02004405           JUNCTION     0.82     1.12     6.97     0  03:03        1.12
  WS02006109           JUNCTION     0.80     1.24     7.86     0  03:02        1.23
  WS02006110           JUNCTION     0.78     1.09     7.68     0  03:02        1.09
  WS02006111           JUNCTION     0.24     0.58     7.28     0  03:03        0.57
  WS02006112           JUNCTION     0.89     1.37     7.25     0  03:03        1.36
  WS02006113           JUNCTION     0.36     0.59     7.49     0  03:03        0.59
  WS02006115           JUNCTION     0.61     1.04     7.18     0  03:03        1.04
  WS02006116           JUNCTION     0.69     1.10     7.14     0  03:03        1.10
  WS02006230           JUNCTION     0.79     1.36     8.10     0  03:02        1.35
  WS02006231           JUNCTION     0.54     0.99     8.11     0  03:02        0.98
  WS02006232           JUNCTION     0.67     1.08     8.12     0  03:02        1.07
  WS02006234           JUNCTION     0.59     0.97     8.13     0  03:02        0.97
  WS02006235           JUNCTION     0.62     0.98     8.15     0  03:02        0.96
  WS02006238           JUNCTION     0.65     1.00     8.15     0  03:02        0.99
  WS02006240           JUNCTION     0.54     0.87     8.16     0  03:02        0.86
  WS02006242           JUNCTION     0.60     0.90     8.17     0  03:02        0.90
  WS02006243           JUNCTION     0.48     0.77     8.19     0  03:02        0.77
  WS02006245           JUNCTION     0.46     0.72     8.20     0  03:02        0.72
  WS02006247           JUNCTION     0.47     0.72     8.22     0  02:40        0.72
  WS02006248           JUNCTION     0.42     0.65     8.24     0  02:40        0.65
  WS02006249           JUNCTION     0.44     0.65     8.25     0  02:40        0.65
  WS02006239           JUNCTION     0.60     0.94     8.15     0  03:02        0.94
  WS02006251           JUNCTION     0.44     0.70     8.37     0  02:40        0.70
  WS02006252           JUNCTION     0.37     0.59     8.83     0  07:14        0.58
  WS02006253           JUNCTION     0.46     0.73     8.37     0  02:40        0.73
  WS02006256           JUNCTION     1.05     1.22     8.15     0  02:50        1.22
  WS02004138           JUNCTION     0.14     0.19     7.44     0  02:42        0.19
  WS02004407           JUNCTION     0.23     0.36     6.67     0  03:04        0.36
  WS02006228           JUNCTION     0.82     1.36     8.01     0  03:02        1.34
  WS02006229           JUNCTION     0.80     1.39     8.09     0  03:02        1.38
  WS02006280           JUNCTION     0.08     0.24     8.52     0  03:02        0.24
  WS02006284           JUNCTION     0.39     0.63     9.02     0  03:02        0.62
  WS02006287           JUNCTION     0.12     0.37     9.32     0  03:02        0.37
  WSF200               JUNCTION     0.23     0.38     5.61     0  03:06        0.38
  HS02004901           JUNCTION     0.14     0.35    10.17     0  03:01        0.35
  HS02004881           JUNCTION     0.01     0.05     9.08     0  03:01        0.05
  HS02004876           JUNCTION     0.05     0.15     9.18     0  03:01        0.15
  HS02004870           JUNCTION     0.02     0.09     9.37     0  03:01        0.09
  HS02004862           JUNCTION     0.02     0.10     9.49     0  03:01        0.10
  HS02004856           JUNCTION     0.08     0.15     9.57     0  03:01        0.15
  HS02004852           JUNCTION     0.01     0.07     9.58     0  03:02        0.07
  HS02004848           JUNCTION     0.01     0.06     9.67     0  03:01        0.06
  HS02004842           JUNCTION     0.34     0.40     9.67     0  03:01        0.40
  HS02004837           JUNCTION     0.03     0.09     9.67     0  03:01        0.09
  HS02004830           JUNCTION     0.05     0.10     9.57     0  03:01        0.10
  HS02004824           JUNCTION     0.03     0.11     9.51     0  03:02        0.11
  HS02004817           JUNCTION     0.45     0.67     9.52     0  03:02        0.67
  HS02004807           JUNCTION     0.14     0.34     9.51     0  03:02        0.34
  HS02004802           JUNCTION     0.18     0.38     9.50     0  03:02        0.38
  HS02004799           JUNCTION     0.14     0.43     9.65     0  03:01        0.43
  HS02004792           JUNCTION     0.04     0.20     9.72     0  03:01        0.19
  HS02004788           JUNCTION     0.03     0.14    10.04     0  03:02        0.14
  HS02004785           JUNCTION     0.06     0.23    10.13     0  03:02        0.23
  HS02004777           JUNCTION     0.16     0.37    10.17     0  03:01        0.37
  HS02004770           JUNCTION     0.13     0.34    10.17     0  03:01        0.34
  HS02004480           JUNCTION     0.10     0.35     9.59     0  03:01        0.35
  HS02004479           JUNCTION     0.14     0.39     9.60     0  03:01        0.39
  HS02004478           JUNCTION     0.07     0.26     9.48     0  03:01        0.26
  YS02001745           JUNCTION     0.67     0.88     8.40     0  03:28        0.88
  YS02001748           JUNCTION     1.05     2.27     9.35     0  02:48        1.32
  YS02001751           JUNCTION     1.23     2.14     9.01     0  02:49        1.53
  YS02001754           JUNCTION     1.49     2.10     8.71     0  02:49        1.81
  YS02001762           JUNCTION     1.69     2.07     8.47     0  02:49        2.03
  YS02001765           JUNCTION     1.64     2.02     8.47     0  02:49        1.98
  YS02001767           JUNCTION     1.60     1.97     8.46     0  02:49        1.93
  YS02001770           JUNCTION     1.60     1.95     8.44     0  02:49        1.91
  YS02001774           JUNCTION     1.67     2.01     8.43     0  02:49        1.97
  YS02001779           JUNCTION     1.41     1.68     8.37     0  02:48        1.68
  YS02001882           JUNCTION     0.60     1.68     8.40     0  02:51        1.62
  YS02001884           JUNCTION     0.70     1.77     8.39     0  02:51        1.72
  YS02001759           JUNCTION     1.72     2.08     8.44     0  02:49        2.07
  YS02001887           JUNCTION     0.78     1.82     8.36     0  02:51        1.81
  YS02001890           JUNCTION     0.80     1.81     8.32     0  02:51        1.81
  YS02001898           JUNCTION     0.57     1.57     8.31     0  02:51        1.56
  YS02001901           JUNCTION     0.69     1.69     8.30     0  02:51        1.67
  YS02001904           JUNCTION     0.67     1.64     8.27     0  02:51        1.63
  YS02001907           JUNCTION     1.00     1.96     8.25     0  02:51        1.96
  YS02001910           JUNCTION     0.79     1.81     8.32     0  02:51        1.78
  YS02001915           JUNCTION     0.59     1.72     8.44     0  02:51        1.60
  YS02001918           JUNCTION     0.33     1.62     8.68     0  02:51        1.31
  YS02001619           JUNCTION     1.20     1.51     8.44     0  02:48        1.48
  YS02001629           JUNCTION     1.55     1.85     8.40     0  02:48        1.84
  YS02001641           JUNCTION     1.65     1.94     8.38     0  02:49        1.93
  YS02001644           JUNCTION     1.65     1.92     8.35     0  02:48        1.92
  YS02001652           JUNCTION     1.50     2.16     8.76     0  02:55        2.13
  YS02001655           JUNCTION     1.26     2.20     9.05     0  03:05        1.99
  YS02001920           JUNCTION     0.43     1.48     8.49     0  02:53        1.40
  YS02001923           JUNCTION     0.26     1.26     8.52     0  02:53        1.17
  YS02001926           JUNCTION     0.30     1.08     8.52     0  02:53        0.99
  YS02001929           JUNCTION     0.17     0.77     8.46     0  02:53        0.74
  YS02001658           JUNCTION     1.00     2.30     9.44     0  02:59        1.68
  YS02001661           JUNCTION     0.78     2.46     9.86     0  03:06        1.56
  YS02001664           JUNCTION     0.34     0.57     8.49     0  03:54        0.56
  YS02001622           JUNCTION     1.23     1.52     8.43     0  02:48        1.50
  YS02001633           JUNCTION     1.65     1.97     8.42     0  02:48        1.94
  YS02001649           JUNCTION     1.69     2.05     8.44     0  02:55        2.05
  YS02001757           JUNCTION     1.82     2.21     8.47     0  02:49        2.16
  YS02001895           JUNCTION     0.57     1.57     8.32     0  02:51        1.56
  YS02001625           JUNCTION     1.51     1.78     8.38     0  02:48        1.78
  YS02163301           JUNCTION     1.58     1.90     8.41     0  02:48        1.88
  YS02163601           JUNCTION     1.70     2.00     8.40     0  02:48        1.99
  YS02164001           JUNCTION     1.63     1.93     8.39     0  02:48        1.91
  YS02001647           JUNCTION     1.48     1.80     8.41     0  02:56        1.80
  YSB1154              JUNCTION     0.27     0.54     9.60     0  03:01        0.54
  YSB6556              JUNCTION     0.17     0.43     9.60     0  03:02        0.43
  YSB1174              JUNCTION     0.23     0.49     9.60     0  03:01        0.49
  YSB1171              JUNCTION     0.43     0.69     9.60     0  03:01        0.69
  YS02006553           JUNCTION     1.00     1.97     8.25     0  02:51        1.96
  YS02006561           JUNCTION     0.36     1.16     7.82     0  02:51        1.08
  YS02006556           JUNCTION     0.96     1.95     8.26     0  02:51        1.93
  YS02006558           JUNCTION     1.00     1.99     8.25     0  02:51        1.96
  YS02001783           JUNCTION     0.61     1.75     7.89     0  02:46        1.47
  YS02001784           JUNCTION     0.63     1.86     7.93     0  02:46        1.42
  YS02001786           JUNCTION     0.58     2.15     8.18     0  02:46        1.26
  YS02001788           JUNCTION     0.53     2.28     8.26     0  02:46        1.12
  YS02001790           JUNCTION     0.68     1.96     7.60     0  02:45        1.29
  YS02001791           JUNCTION     0.70     1.86     7.33     0  06:13        1.28
  YS02001793           JUNCTION     1.04     1.98     6.81     0  02:46        1.80
  WS02004139           JUNCTION     0.58     0.75     5.66     0  02:50        0.75
  WSC                  OUTFALL      0.30     0.42     1.09     0  02:54        0.42
  3                    OUTFALL      0.11     0.22     6.22     0  02:50        0.22
  4                    OUTFALL      0.04     0.15     7.15     0  02:40        0.15
  5                    OUTFALL      0.00     0.00     5.00     0  00:00        0.00
  JK-storage           STORAGE      3.74     5.80     6.60     0  02:46        5.80
  CC-storage           STORAGE      1.02     1.38     8.38     0  03:33        1.38
  XR-storage           STORAGE      7.22     7.72     5.72     0  02:47        7.72
  
  
  *******************
  Node Inflow Summary
  *******************
  
  -------------------------------------------------------------------------------------------------
                                  Maximum  Maximum                  Lateral       Total        Flow
                                  Lateral    Total  Time of Max      Inflow      Inflow     Balance
                                   Inflow   Inflow   Occurrence      Volume      Volume       Error
  Node                 Type           LPS      LPS  days hr:min    10^6 ltr    10^6 ltr     Percent
  -------------------------------------------------------------------------------------------------
  WS02001211           JUNCTION      7.35   387.08     0  02:49       0.207        6.05       0.518
  WS02001212           JUNCTION      0.00   386.34     0  02:49           0        6.02       0.314
  WS02001213           JUNCTION      0.00   385.59     0  02:49           0           6       0.332
  WS02003069           JUNCTION      0.32  1078.13     0  02:52     0.00902        14.3       0.209
  WS02003072           JUNCTION      0.00  1077.77     0  02:52           0        14.3       0.257
  WS02003073           JUNCTION      1.82  1079.36     0  02:53      0.0514        14.3       0.292
  WS02003060           JUNCTION     16.53  1077.95     0  02:51       0.466        14.3       0.198
  WS02003066           JUNCTION      0.00   787.20     0  03:05           0        7.94       0.062
  WS02003059           JUNCTION      0.00   384.61     0  02:48           0        5.98       0.617
  WS02003067           JUNCTION      0.00   786.81     0  03:05           0        7.95       0.127
  WS02004401           JUNCTION      0.00   790.01     0  03:03           0         8.2       0.278
  WS02004402           JUNCTION      0.00   790.07     0  03:03           0        8.18       0.260
  WS02004403           JUNCTION      0.00   790.13     0  03:03           0        8.16       0.236
  WS02004404           JUNCTION      0.16   790.35     0  03:03     0.00457        8.14       0.177
  WS02004406           JUNCTION      0.00   790.43     0  03:03           0        8.11       0.430
  WS02004409           JUNCTION      0.00   790.21     0  03:04           0        8.06       0.228
  WS02004410           JUNCTION      0.00   788.59     0  03:04           0        8.05       0.255
  WS02004411           JUNCTION      0.00   787.48     0  03:04           0        8.03       0.260
  WS02004412           JUNCTION      0.00   786.89     0  03:04           0           8       0.278
  WS02004413           JUNCTION      0.00   786.71     0  03:05           0        7.98       0.406
  WS02004405           JUNCTION      0.04   790.40     0  03:03     0.00107        8.13       0.264
  WS02006109           JUNCTION      1.23   775.55     0  03:02      0.0347        8.26       0.239
  WS02006110           JUNCTION      0.00   775.59     0  03:02           0        8.24       0.262
  WS02006111           JUNCTION      0.00   772.60     0  03:03           0        8.21       0.057
  WS02006112           JUNCTION     26.73   789.58     0  03:03      0.0709        8.27       0.375
  WS02006113           JUNCTION      0.00   775.58     0  03:02           0        8.22       0.125
  WS02006115           JUNCTION      0.00   789.55     0  03:03           0        8.24       0.274
  WS02006116           JUNCTION      0.00   789.82     0  03:03           0        8.22       0.238
  WS02006230           JUNCTION     10.28   397.54     0  05:43        0.29        6.17       0.179
  WS02006231           JUNCTION      0.00   387.64     0  05:42           0        5.89       0.224
  WS02006232           JUNCTION      0.00   387.73     0  05:42           0        5.91       0.277
  WS02006234           JUNCTION      0.00   388.61     0  05:42           0        5.92       0.156
  WS02006235           JUNCTION      0.00   388.65     0  05:42           0        5.98       0.175
  WS02006238           JUNCTION      0.00   313.71     0  07:30           0        4.21       0.195
  WS02006240           JUNCTION      0.00   313.64     0  07:11           0        4.18       0.300
  WS02006242           JUNCTION      0.00   327.03     0  02:09           0        4.18       0.358
  WS02006243           JUNCTION      0.00   339.21     0  02:09           0        4.17       0.122
  WS02006245           JUNCTION      0.00   346.67     0  02:09           0        4.18       0.291
  WS02006247           JUNCTION      0.00   353.62     0  02:09           0        4.19       0.192
  WS02006248           JUNCTION      0.00   359.28     0  02:09           0        4.19       0.077
  WS02006249           JUNCTION      0.00   470.88     0  02:40           0        4.92       0.249
  WS02006239           JUNCTION      0.00   313.39     0  07:30           0        4.19       0.293
  WS02006251           JUNCTION      0.08   471.13     0  02:40     0.00217        4.95       0.175
  WS02006252           JUNCTION      0.00   400.00     0  02:30           0        4.52       0.010
  WS02006253           JUNCTION      3.67   134.78     0  03:01     0.00915        0.43       0.914
  WS02006256           JUNCTION      0.00   600.00     0  06:50           0        5.85       0.049
  WS02004138           JUNCTION      0.00   380.00     0  02:40           0        5.87       0.063
  WS02004407           JUNCTION      0.00   790.46     0  03:03           0        8.07       0.100
  WS02006228           JUNCTION      0.00   774.39     0  03:02           0        8.24       0.185
  WS02006229           JUNCTION      0.00   774.37     0  03:02           0        8.25       0.159
  WS02006280           JUNCTION      0.00   611.96     0  03:02           0         2.1       0.003
  WS02006284           JUNCTION      0.10   611.07     0  03:02      0.0027         2.1       0.059
  WS02006287           JUNCTION      0.00   609.84     0  03:02           0         2.1       0.034
  WSF200               JUNCTION      0.00   787.28     0  03:05           0        7.93       0.065
  HS02004901           JUNCTION     32.58    32.58     0  03:01      0.0853      0.0856       2.107
  HS02004881           JUNCTION     13.69   131.68     0  03:01      0.0372       0.403       0.068
  HS02004876           JUNCTION     24.31   119.37     0  03:01      0.0714       0.367       0.153
  HS02004870           JUNCTION     25.15    96.63     0  03:01      0.0703       0.295       0.038
  HS02004862           JUNCTION     23.13    73.48     0  03:01      0.0763       0.225       0.079
  HS02004856           JUNCTION     18.81    51.88     0  03:01      0.0529        0.15       0.974
  HS02004852           JUNCTION      0.00    35.11     0  03:01           0      0.0975       0.061
  HS02004848           JUNCTION     51.30    51.30     0  03:01        0.17        0.17       0.030
  HS02004842           JUNCTION      0.00    15.11     0  03:01           0      0.0852      18.027
  HS02004837           JUNCTION     48.64    62.30     0  03:01       0.302       0.374       0.217
  HS02004830           JUNCTION      0.15    61.39     0  03:01     0.00423       0.364       0.340
  HS02004824           JUNCTION     61.99   121.77     0  03:01       0.222       0.584       0.093
  HS02004817           JUNCTION      0.60   117.99     0  03:02      0.0169       0.601       2.855
  HS02004807           JUNCTION     46.68   158.05     0  03:01       0.129       0.713       0.602
  HS02004802           JUNCTION      0.00   156.92     0  03:03           0       0.709       0.573
  HS02004799           JUNCTION     37.02   389.11     0  03:01       0.105        1.19       0.208
  HS02004792           JUNCTION    159.34   356.47     0  03:01       0.445        1.08       0.038
  HS02004788           JUNCTION     52.70   202.58     0  03:02       0.193       0.638       0.062
  HS02004785           JUNCTION      0.15   157.28     0  03:01     0.00423       0.447       0.112
  HS02004777           JUNCTION      0.03   160.02     0  03:01    0.000846       0.447       1.175
  HS02004770           JUNCTION    133.95   163.76     0  03:01       0.365       0.449       0.699
  HS02004480           JUNCTION      0.00   456.70     0  03:01           0         1.4       0.083
  HS02004479           JUNCTION      0.00    72.19     0  03:02           0       0.228       0.322
  HS02004478           JUNCTION      0.00   609.30     0  03:02           0         2.1       0.018
  YS02001745           JUNCTION    387.96   387.96     0  03:01        2.65        2.65       0.379
  YS02001748           JUNCTION      0.04   555.70     0  02:47     0.00127        2.64       0.879
  YS02001751           JUNCTION      0.01   398.05     0  03:01     0.00031        2.62       0.907
  YS02001754           JUNCTION      0.26   398.14     0  03:01     0.00733         2.6       0.961
  YS02001762           JUNCTION      0.00   396.86     0  02:55           0        1.64       1.295
  YS02001765           JUNCTION      0.00   396.83     0  02:55           0        1.64       1.497
  YS02001767           JUNCTION      0.54   396.64     0  02:55      0.0151        1.67       2.192
  YS02001770           JUNCTION    496.57   496.57     0  03:01        2.97         3.1       1.035
  YS02001774           JUNCTION      0.00   366.63     0  03:33           0        1.55       1.663
  YS02001779           JUNCTION      0.01   367.04     0  03:33    0.000141        1.52       1.031
  YS02001882           JUNCTION      0.00    51.36     0  02:47           0      0.0178      15.132
  YS02001884           JUNCTION      0.00    74.93     0  02:47           0      0.0535      13.479
  YS02001759           JUNCTION    483.56   791.15     0  02:57        2.74        4.22       0.547
  YS02001887           JUNCTION    623.03   623.04     0  03:01        3.16        3.19       0.277
  YS02001890           JUNCTION      0.00   623.27     0  03:01           0        3.14       0.302
  YS02001898           JUNCTION      0.00   516.90     0  03:04           0        3.09       0.114
  YS02001901           JUNCTION      0.00   516.95     0  03:07           0        3.09       0.229
  YS02001904           JUNCTION      0.00   516.94     0  03:07           0        3.08       0.209
  YS02001907           JUNCTION      0.00  1063.64     0  03:02           0        6.88       0.357
  YS02001910           JUNCTION      0.00   571.49     0  02:54           0        3.81       0.316
  YS02001915           JUNCTION    347.37   571.43     0  02:54        2.22        3.86       0.165
  YS02001918           JUNCTION      0.00   305.93     0  02:54           0        1.66       0.120
  YS02001619           JUNCTION    337.96   337.96     0  03:01        2.21        2.21       0.560
  YS02001629           JUNCTION      0.00   232.99     0  02:51           0        1.58       1.868
  YS02001641           JUNCTION      0.00   492.40     0  02:51           0         4.1       0.519
  YS02001644           JUNCTION    368.39  1096.53     0  03:28        2.55        9.31       0.282
  YS02001652           JUNCTION      0.00   484.62     0  03:01           0         2.3       1.007
  YS02001655           JUNCTION      0.15   484.55     0  03:01     0.00434        2.33       1.099
  YS02001920           JUNCTION      2.87   305.73     0  02:54      0.0809        1.65       0.190
  YS02001923           JUNCTION      0.04   300.83     0  02:53     0.00106        1.55       0.043
  YS02001926           JUNCTION      0.05   236.74     0  02:53     0.00147        1.53       0.227
  YS02001929           JUNCTION    163.23   163.23     0  03:01        1.53        1.53       0.039
  YS02001658           JUNCTION      0.00   502.80     0  03:02           0        2.35       1.048
  YS02001661           JUNCTION      0.00   746.96     0  02:59           0        2.79      -0.049
  YS02001664           JUNCTION    446.68   446.68     0  03:01        2.35        2.79       0.212
  YS02001622           JUNCTION      0.00   338.18     0  03:01           0        2.19       1.474
  YS02001633           JUNCTION    373.80   493.19     0  02:51        2.63        4.16       0.779
  YS02001649           JUNCTION      0.00  1036.92     0  02:52           0         5.7       0.656
  YS02001757           JUNCTION      0.00  2020.23     0  02:52           0        9.67       0.963
  YS02001895           JUNCTION      0.00   516.94     0  03:07           0        3.09       0.163
  YS02001625           JUNCTION      0.00   338.15     0  03:01           0        2.16       1.822
  YS02163301           JUNCTION      0.00   233.26     0  02:51           0        1.56       1.566
  YS02163601           JUNCTION      0.11   493.14     0  02:51      0.0031        4.13       0.736
  YS02164001           JUNCTION      0.00   493.13     0  02:51           0        4.11       0.490
  YS02001647           JUNCTION      0.00   749.44     0  02:51           0         4.6       0.617
  YSB1154              JUNCTION     43.21    43.21     0  03:01       0.127       0.128       1.144
  YSB6556              JUNCTION      0.00    41.77     0  03:01           0       0.129       0.980
  YSB1174              JUNCTION     35.94    35.94     0  03:01      0.0924      0.0931       1.403
  YSB1171              JUNCTION      0.00    73.32     0  03:01           0       0.227       2.865
  YS02006553           JUNCTION      0.00   672.08     0  03:32           0        6.14       0.258
  YS02006561           JUNCTION      0.00   969.14     0  03:00           0        8.98       0.009
  YS02006556           JUNCTION      0.00   671.74     0  03:32           0        6.14       0.188
  YS02006558           JUNCTION    532.26   969.40     0  03:00         2.9        9.01       0.061
  YS02001783           JUNCTION      0.00   969.19     0  03:01           0        8.98       0.029
  YS02001784           JUNCTION      1.06   970.15     0  03:00      0.0299        9.01       0.044
  YS02001786           JUNCTION      0.06   970.25     0  03:00     0.00159           9       0.041
  YS02001788           JUNCTION      0.07   970.35     0  03:01       0.002           9       0.022
  YS02001790           JUNCTION      0.15   970.52     0  03:00     0.00437           9       0.027
  YS02001791           JUNCTION      0.00   970.46     0  03:00           0           9       0.010
  YS02001793           JUNCTION      0.00   970.57     0  03:00           0           9       0.002
  WS02004139           JUNCTION      0.32   380.32     0  02:42     0.00905        5.88       0.557
  WSC                  OUTFALL       0.00  1078.93     0  02:54           0        14.3       0.000
  3                    OUTFALL       0.00   541.88     0  02:50           0        4.03       0.000
  4                    OUTFALL       0.00   216.81     0  02:40           0       0.717       0.000
  5                    OUTFALL       0.00     0.00     0  00:00           0           0       0.000 ltr
  JK-storage           STORAGE       0.00   970.69     0  03:00           0        9.15      -4.107
  CC-storage           STORAGE       0.00  2020.36     0  02:52           0        8.04       0.056
  XR-storage           STORAGE     849.17   849.17     0  03:01        10.2        10.8       0.001
  
  
  **********************
  Node Surcharge Summary
  **********************
  
  Surcharging occurs when water rises above the top of the highest conduit.
  ---------------------------------------------------------------------
                                               Max. Height   Min. Depth
                                   Hours       Above Crown    Below Rim
  Node                 Type      Surcharged         Meters       Meters
  ---------------------------------------------------------------------
  WS02004401           JUNCTION        0.33          0.094        1.566
  WS02004402           JUNCTION        0.39          0.098        1.642
  WS02004403           JUNCTION        0.41          0.089        1.941
  WS02004404           JUNCTION        0.82          0.143        2.637
  WS02004406           JUNCTION        0.66          0.095        2.355
  WS02004405           JUNCTION        0.74          0.124        2.676
  WS02006109           JUNCTION        2.29          0.421        1.399
  WS02006110           JUNCTION        1.16          0.184        1.666
  WS02006112           JUNCTION        1.23          0.367        1.313
  WS02006115           JUNCTION        0.10          0.033        2.217
  WS02006116           JUNCTION        0.13          0.042        2.248
  WS02006230           JUNCTION        0.79          0.276        1.294
  WS02006231           JUNCTION        1.06          0.280        1.250
  WS02006232           JUNCTION        2.30          0.383        1.097
  WS02006234           JUNCTION        1.15          0.253        0.987
  WS02006235           JUNCTION        1.85          0.272        1.018
  WS02006238           JUNCTION        2.02          0.282        1.148
  WS02006240           JUNCTION        1.09          0.156        1.234
  WS02006242           JUNCTION        1.80          0.175        0.645
  WS02006243           JUNCTION        0.72          0.058        0.712
  WS02006245           JUNCTION        0.09          0.007        0.843
  WS02006247           JUNCTION        0.14          0.007        0.753
  WS02006239           JUNCTION        1.15          0.205        1.085
  WS02006252           JUNCTION        1.84          0.192        0.908
  WS02006228           JUNCTION        2.20          0.526        1.674
  YS02001748           JUNCTION        4.99          1.190        0.000
  YS02001751           JUNCTION        5.10          1.135        0.065
  YS02001754           JUNCTION        5.23          1.047        0.103
  YS02001762           JUNCTION        5.51          1.074        0.076
  YS02001765           JUNCTION        5.48          1.023        0.077
  YS02001767           JUNCTION        5.46          0.968        0.062
  YS02001770           JUNCTION        5.40          0.920        0.000
  YS02001774           JUNCTION        5.50          1.008        0.042
  YS02001779           JUNCTION        5.22          0.680        0.000
  YS02001882           JUNCTION        1.02          0.684        0.146
  YS02001884           JUNCTION        1.05          0.711        0.159
  YS02001759           JUNCTION        5.54          1.081        0.129
  YS02001887           JUNCTION        1.12          0.773        0.177
  YS02001890           JUNCTION        1.15          0.760        0.000
  YS02001898           JUNCTION        0.98          0.542        0.198
  YS02001901           JUNCTION        1.09          0.689        0.181
  YS02001904           JUNCTION        1.07          0.641        0.209
  YS02001907           JUNCTION        1.65          0.950        0.000
  YS02001910           JUNCTION        1.20          0.811        0.289
  YS02001915           JUNCTION        1.01          0.718        0.282
  YS02001918           JUNCTION        0.78          0.615        0.195
  YS02001619           JUNCTION        5.13          0.512        0.098
  YS02001629           JUNCTION        5.13          0.470        0.000
  YS02001641           JUNCTION        5.50          0.940        0.160
  YS02001644           JUNCTION        5.50          0.920        0.000
  YS02001652           JUNCTION        5.26          1.130        0.000
  YS02001655           JUNCTION        5.13          1.200        0.000
  YS02001920           JUNCTION        0.81          0.477        0.663
  YS02001923           JUNCTION        0.01          0.049        0.771
  YS02001926           JUNCTION        0.01          0.077        0.823
  YS02001658           JUNCTION        5.01          1.300        0.000
  YS02001661           JUNCTION        0.18          1.390        0.000
  YS02001622           JUNCTION        5.14          0.522        0.098
  YS02001633           JUNCTION        5.48          0.945        0.115
  YS02001649           JUNCTION        5.52          1.050        0.000
  YS02001757           JUNCTION        5.62          1.210        0.000
  YS02001895           JUNCTION        0.99          0.570        0.180
  YS02001625           JUNCTION        5.28          0.780        0.000
  YS02163301           JUNCTION        5.45          0.898        0.132
  YS02163601           JUNCTION        5.52          1.002        0.078
  YS02164001           JUNCTION        5.49          0.932        0.168
  YS02001647           JUNCTION        5.26          0.802        0.098
  YS02006553           JUNCTION        1.72          0.971        0.219
  YS02006561           JUNCTION        0.89          0.357        0.793
  YS02006556           JUNCTION        1.41          0.907        0.443
  YS02006558           JUNCTION        1.37          0.887        0.513
  YS02001783           JUNCTION        1.39          0.952        0.648
  YS02001784           JUNCTION        1.45          1.060        0.430
  YS02001786           JUNCTION        1.39          1.353        0.077
  YS02001788           JUNCTION        1.38          1.480        0.000
  YS02001790           JUNCTION        3.29          1.157        0.000
  YS02001791           JUNCTION        3.47          1.063        0.857
  YS02001793           JUNCTION        3.77          0.977        1.623
  
  
  *********************
  Node Flooding Summary
  *********************
  
  Flooding refers to all water that overflows a node, whether it ponds or not.
  --------------------------------------------------------------------------
                                                             Total   Maximum
                                 Maximum   Time of Max       Flood    Ponded
                        Hours       Rate    Occurrence      Volume     Depth
  Node                 Flooded       LPS   days hr:min    10^6 ltr    Meters
  --------------------------------------------------------------------------
  YS02001748              0.01    149.52      0  02:48       0.000     0.000
  YS02001770              0.01      4.43      0  02:49       0.000     0.000
  YS02001779              2.67    366.91      0  03:33       1.496     0.000
  YS02001890              0.23    106.92      0  03:01       0.038     0.000
  YS02001907              0.64    613.84      0  03:02       0.732     0.000
  YS02001629              0.01      2.51      0  02:49       0.000     0.000
  YS02001644              4.24   1096.23      0  03:28       7.359     0.000
  YS02001652              0.01     24.07      0  03:10       0.000     0.000
  YS02001655              0.01     19.64      0  03:08       0.000     0.000
  YS02001658              0.01     12.57      0  03:09       0.000     0.000
  YS02001661              0.01    189.21      0  03:10       0.001     0.000
  YS02001649              0.09     53.02      0  03:10       0.005     0.000
  YS02001757              0.01      9.86      0  02:49       0.000     0.000
  YS02001625              1.10    315.82      0  03:01       0.541     0.000
  YS02001788              0.01     44.51      0  02:46       0.000     0.000
  YS02001790              0.01     81.12      0  02:45       0.000     0.000
  JK-storage              2.90    960.84      0  03:30       3.704     0.000
  XR-storage              4.77    735.24      0  03:01       4.010     0.000
  
  
  **********************
  Storage Volume Summary
  **********************
  
  --------------------------------------------------------------------------------------------------
                         Average     Avg  Evap Exfil       Maximum     Max    Time of Max    Maximum
                          Volume    Pcnt  Pcnt  Pcnt        Volume    Pcnt     Occurrence    Outflow
  Storage Unit           1000 m3    Full  Loss  Loss       1000 m3    Full    days hr:min        LPS
  --------------------------------------------------------------------------------------------------
  JK-storage               0.188      65     0     0         0.291     100       0  02:46     600.00
  CC-storage               2.856      18     0     0         3.849      25       0  03:33     400.00
  XR-storage               0.866      93     0     0         0.926     100       0  02:47     380.00
  
  
  ***********************
  Outfall Loading Summary
  ***********************
  
  -----------------------------------------------------------
                         Flow       Avg       Max       Total
                         Freq      Flow      Flow      Volume
  Outfall Node           Pcnt       LPS       LPS    10^6 ltr
  -----------------------------------------------------------
  WSC                  100.00    595.99   1078.93      14.264
  3                     86.30    240.46    541.88       4.028
  4                     43.10     84.02    216.81       0.717
  5                      0.00      0.00      0.00       0.000
  -----------------------------------------------------------
  System                57.35    920.47   1697.61      19.008
  
  
  ********************
  Link Flow Summary
  ********************
  
  -----------------------------------------------------------------------------
                                 Maximum  Time of Max   Maximum    Max/    Max/
                                  |Flow|   Occurrence   |Veloc|    Full    Full
  Link                 Type          LPS  days hr:min     m/sec    Flow   Depth
  -----------------------------------------------------------------------------
  WS02003066WSF200     CONDUIT    787.28     0  03:05      3.02    0.13    0.28
  WS02006287WS02006284 CONDUIT    610.97     0  03:02      2.31    0.28    0.37
  WS02006284WS02006280 CONDUIT    611.96     0  03:02      2.55    0.26    0.35
  WS02006280WS02006229 CONDUIT    612.08     0  03:02      4.12    0.13    0.24
  WS02006229WS02006228 CONDUIT    774.39     0  03:02      1.54    2.56    1.00
  WS02006256WS02006235 CONDUIT    149.95     0  00:25      2.14    1.59    1.00
  WS02006253WS02006251 CONDUIT    134.15     0  03:01      0.45    0.40    0.99
  WS02006252WS02006251 CONDUIT    400.33     0  07:14      3.19    1.47    1.00
  WS02006251WS02006249 CONDUIT    470.88     0  02:40      1.24    1.36    0.97
  WS02006249WS02006248 CONDUIT    359.28     0  02:09      1.18    1.97    0.92
  WS02006248WS02006247 CONDUIT    353.62     0  02:09      1.15    0.77    0.96
  WS02006247WS02006245 CONDUIT    346.67     0  02:09      1.12    2.75    1.00
  WS02006245WS02006243 CONDUIT    339.21     0  02:09      1.15    1.00    1.00
  WS02006243WS02006242 CONDUIT    327.03     0  02:09      0.99    0.70    1.00
  WS02006242WS02006240 CONDUIT    313.64     0  07:11      0.88    1.25    1.00
  WS02006240WS02006239 CONDUIT    313.39     0  07:30      0.87    0.99    1.00
  WS02006239WS02006238 CONDUIT    313.71     0  07:30      0.84    1.00    1.00
  WS02006238WS02006235 CONDUIT    313.69     0  07:30      0.84    0.70    1.00
  WS02006235WS02006234 CONDUIT    388.61     0  05:42      1.04    4.10    1.00
  WS02006234WS02006232 CONDUIT    387.73     0  05:42      1.01    0.78    1.00
  WS02006232WS02006231 CONDUIT    387.64     0  05:42      1.06    0.81    1.00
  WS02006231WS02006230 CONDUIT    387.26     0  05:43      1.37    5.87    1.00
  WS02006230WS02006229 CONDUIT    397.31     0  05:43      1.03    8.84    1.00
  WS02006228WS02006109 CONDUIT    774.32     0  03:02      1.54    3.38    1.00
  WS02006116WS02004401 CONDUIT    790.01     0  03:03      1.01    1.09    1.00
  WS02006115WS02006116 CONDUIT    789.82     0  03:03      1.01    1.01    1.00
  WS02006113WS02006111 CONDUIT    772.60     0  03:03      2.59    0.93    0.73
  WS02006112WS02006115 CONDUIT    789.55     0  03:03      1.01    0.47    1.00
  WS02006111WS02006112 CONDUIT    772.19     0  03:04      1.72    0.37    0.85
  WS02006110WS02006113 CONDUIT    775.58     0  03:02      1.67    0.71    0.87
  WS02006109WS02006110 CONDUIT    775.59     0  03:02      1.54    1.49    1.00
  WS02004411WS02004412 CONDUIT    786.89     0  03:04      1.13    1.12    0.83
  WS02004401WS02004402 CONDUIT    790.07     0  03:03      1.01    0.95    1.00
  WS02004413WS02003067 CONDUIT    786.81     0  03:05      1.38    0.34    0.68
  WS02004412WS02004413 CONDUIT    786.71     0  03:05      1.06    0.53    0.90
  WS02004410WS02004411 CONDUIT    787.48     0  03:04      1.12    1.08    0.84
  WS02004409WS02004410 CONDUIT    788.59     0  03:04      1.12    1.02    0.84
  WS02004407WS02004409 CONDUIT    790.21     0  03:04      1.61    0.28    0.60
  WS02004406WS02004407 CONDUIT    790.46     0  03:03      1.39    0.35    0.68
  WS02004405WS02004406 CONDUIT    790.43     0  03:03      1.01    1.56    1.00
  WS02004404WS02004405 CONDUIT    790.36     0  03:03      1.01    7.74    1.00
  WS02004403WS02004404 CONDUIT    790.19     0  03:03      1.01    0.57    1.00
  WS02004402WS02004403 CONDUIT    790.13     0  03:03      1.01    1.14    1.00
  WS02004139WS02001211 CONDUIT    379.74     0  02:49      0.69    0.48    0.61
  WS02004138WS02004139 CONDUIT    380.00     0  02:42      2.95    0.08    0.45
  WS02003067WS02003066 CONDUIT    787.20     0  03:05      1.50    0.25    0.47
  WS02001213WS02003059 CONDUIT    384.61     0  02:48      0.67    0.63    0.81
  WS02001212WS02001213 CONDUIT    385.59     0  02:49      1.30    0.59    0.50
  WS02001211WS02001212 CONDUIT    386.34     0  02:49      0.76    0.30    0.67
  WS02003072WS02003073 CONDUIT   1077.53     0  02:53      1.81    2.33    0.52
  WS02003069WS02003072 CONDUIT   1077.77     0  02:52      1.70    0.52    0.55
  WS02003060WS02003069 CONDUIT   1077.81     0  02:52      1.93    0.42    0.50
  WS02003059WS02003060 CONDUIT    383.28     0  02:48      0.92    0.25    0.70
  HS02004901HS02004770 CONDUIT     32.25     0  03:01      0.09    0.12    0.50
  HS02004876HS02004881 CONDUIT    119.33     0  03:01      1.17    1.27    0.15
  HS02004870HS02004876 CONDUIT     96.13     0  03:01      0.79    0.06    0.17
  HS02004842HS02004848 CONDUIT     15.11     0  03:01      0.07    0.01    0.33
  HS02004837HS02004842 CONDUIT     16.10     0  03:03      0.42    0.01    0.34
  HS02004830HS02004837 CONDUIT     61.24     0  03:01      0.66    0.06    0.13
  HS02004824HS02004830 CONDUIT     60.79     0  03:01      0.63    0.08    0.15
  HS02004817HS02004824 CONDUIT    117.39     0  03:02      0.30    0.05    0.56
  HS02004770HS02004777 CONDUIT    159.99     0  03:01      0.45    0.29    0.51
  HS02004799HS02004480 CONDUIT    387.39     0  03:01      1.00    0.49    0.56
  HS02004792HS02004799 CONDUIT    353.06     0  03:01      1.12    0.22    0.45
  HS02004788HS02004792 CONDUIT    202.14     0  03:02      1.22    0.13    0.24
  HS02004785HS02004788 CONDUIT    156.68     0  03:02      0.85    1.18    0.26
  HS02004777HS02004785 CONDUIT    157.13     0  03:01      0.53    0.19    0.42
  HS02004480HS02004478 CONDUIT    456.75     0  03:01      1.47    1.92    0.44
  HS02004479HS02004480 CONDUIT     74.07     0  03:02      0.22    0.07    0.53
  HS02004862HS02004870 CONDUIT     73.11     0  03:01      0.77    0.08    0.14
  HS02004848HS02004852 CONDUIT     35.11     0  03:01      0.52    0.04    0.10
  HS02004856HS02004862 CONDUIT     51.23     0  03:01      0.58    0.05    0.13
  HS02004852HS02004856 CONDUIT     35.02     0  03:02      0.32    0.04    0.16
  HS02004802HS02004478 CONDUIT    160.68     0  03:04      0.54    0.14    0.45
  HS02004478WS02006287 CONDUIT    609.84     0  03:02      2.03    0.17    0.33
  HS02004817HS02004807 CONDUIT    120.81     0  03:04      0.24    0.07    0.73
  HS02004807HS02004802 CONDUIT    156.92     0  03:03      0.45    0.30    0.51
  YS02001759YS02001757 CONDUIT    791.48     0  02:57      1.01    0.56    1.00
  YS02001762YS02001759 CONDUIT    396.90     0  02:55      0.51    0.46    1.00
  YS02001765YS02001762 CONDUIT    396.86     0  02:55      0.51    0.37    1.00
  YS02001770YS02001767 CONDUIT    396.11     0  02:55      0.50    1.57    1.00
  YS02001774YS02001770 CONDUIT    366.63     0  03:33      0.47    0.23    1.00
  YS02001779YS02001774 CONDUIT    367.03     0  03:33      0.47    0.18    1.00
  YS02001649YS02001757 CONDUIT   1037.10     0  02:52      1.32    0.63    1.00
  YS02001767YS02001765 CONDUIT    396.83     0  02:55      0.51    0.50    1.00
  YS02006561YS02001783 CONDUIT    969.19     0  03:01      2.14    0.50    1.00
  YS02001783YS02001784 CONDUIT    969.09     0  03:00      1.93    1.34    1.00
  YS02001784YS02001785 CONDUIT    970.19     0  03:00      1.93    2.26    1.00
  YS02001788YS02001790 CONDUIT    970.37     0  03:00      2.34    0.72    1.00
  YS02001790YS02001791 CONDUIT    970.46     0  03:00      2.86    1.06    1.00
  YS02001791YS02001793 CONDUIT    970.57     0  03:00      5.74    0.42    1.00
  YS02001910YS02001907 CONDUIT    571.87     0  02:54      0.73    0.32    1.00
  YS02001786YS02001788 CONDUIT    970.28     0  03:01      2.24    1.87    1.00
  YS02001915YS02001910 CONDUIT    571.49     0  02:54      0.73    0.28    1.00
  YS02001918YS02001915 CONDUIT    307.20     0  02:54      0.44    0.17    1.00
  YS02001923YS02001920 CONDUIT    302.86     0  02:54      0.72    0.14    1.00
  YS02001926YS02001923 CONDUIT    300.79     0  02:53      0.82    0.43    1.00
  YS02001929YS02001926 CONDUIT    236.68     0  02:53      0.87    0.11    0.88
  YS02001920YS02001918 CONDUIT    305.93     0  02:54      0.70    0.30    1.00
  YS02001629YS02163301 CONDUIT    233.26     0  02:51      0.30    0.29    1.00
  YS02001619YS02001622 CONDUIT    338.18     0  03:01      0.60    0.50    1.00
  YS02001622YS02001625 CONDUIT    338.15     0  03:01      0.43    0.18    1.00
  YS02001625YS02001629 CONDUIT    232.99     0  02:51      0.30    0.11    1.00
  YS02163301YS02001633 CONDUIT    233.25     0  02:51      0.30    0.22    1.00
  YS02163601YS02164001 CONDUIT    493.13     0  02:51      0.63    0.44    1.00
  YS02164001YS02001641 CONDUIT    492.40     0  02:51      0.63    0.67    1.00
  YS02001641YS02001644 CONDUIT    492.46     0  02:51      0.63    1.59    1.00
  YS02001647YS02001649 CONDUIT    749.37     0  02:51      0.95    0.40    1.00
  YS02006553YS02006556 CONDUIT    671.74     0  03:32      0.86    0.57    1.00
  YS02006556YS02006558 CONDUIT    672.03     0  03:32      0.86    0.53    1.00
  YSB6556YSB1171       CONDUIT     41.33     0  03:02      0.13    0.04    0.80
  YS02001907YS02006553 CONDUIT    672.08     0  03:32      0.75    0.79    1.00
  YS02006558YS02006561 CONDUIT    969.14     0  03:00      3.43    2.14    1.00
  YS02001633YS02163601 CONDUIT    493.03     0  02:51      0.63    0.52    1.00
  YS02001644YS02001647 CONDUIT    749.44     0  02:51      0.95    0.44    1.00
  YS02001745YS02001748 CONDUIT    555.66     0  02:47      1.48    0.21    0.94
  YS02001748YS02001751 CONDUIT    398.04     0  03:01      1.03    0.20    1.00
  YS02001751YS02001754 CONDUIT    397.88     0  03:01      0.84    0.19    1.00
  YS02001754YS02001757 CONDUIT    398.07     0  03:01      0.51    0.16    1.00
  YS02001882YS02001884 CONDUIT     51.36     0  02:47      0.08    0.06    1.00
  YS02001884YS02001887 CONDUIT     74.93     0  02:47      0.10    0.10    1.00
  YS02001890YS02001895 CONDUIT    516.94     0  03:07      0.66    0.24    1.00
  YS02001895YS02001898 CONDUIT    516.90     0  03:04      0.66    0.90    1.00
  YS02001898YS02001901 CONDUIT    516.95     0  03:07      0.66    0.33    1.00
  YS02001901YS02001904 CONDUIT    516.94     0  03:07      0.66    0.80    1.00
  YS02001904YS02001907 CONDUIT    516.91     0  03:07      0.66    0.18    1.00
  YS02001887YS02001890 CONDUIT    623.27     0  03:01      0.79    1.07    1.00
  YS02001652YS02001649 CONDUIT    484.97     0  03:01      0.62    0.24    1.00
  YS02001655YS02001652 CONDUIT    484.62     0  03:01      0.89    0.24    1.00
  YS02001658YS02001655 CONDUIT    484.40     0  03:01      1.18    0.21    1.00
  YS02001661YS02001658 CONDUIT    502.80     0  03:02      1.56    0.20    1.00
  YS02001664YS02001661 CONDUIT    746.96     0  02:59      1.65    0.23    0.72
  YSB1154YSB6556       CONDUIT     41.77     0  03:01      0.19    0.08    0.69
  YSB1174YSB1171       CONDUIT     34.49     0  03:01      0.10    0.05    0.81
  YSB1171HS02004479    CONDUIT     72.19     0  03:02      0.54    0.05    0.65
  HS02004881HS02006253 CONDUIT    131.62     0  03:01      1.56    0.03    0.30
  YS02001793JiankangQianchi CONDUIT    970.69     0  03:00     14.63    0.08    1.00
  YS02001757CaochengTiaoxuchi CONDUIT   2020.36     0  02:52      2.92    0.89    1.00
  WSF200WS02003060     CONDUIT    786.93     0  03:05      2.07    0.17    0.38
  1                    CONDUIT   1078.93     0  02:54      3.39    0.38    0.42
  2                    CONDUIT    216.81     0  02:40      5.96    0.52    0.51
  3                    CONDUIT    541.88     0  02:50     10.34    0.86    0.72
  4                    CONDUIT      0.00     0  00:00      0.00    0.00    0.00
  CC-Pump-1            PUMP       200.00     0  02:30              1.00
  CC-Pump-2            PUMP       200.00     0  02:06              1.00
  JK-Pump-1            PUMP       300.00     0  02:20              1.00
  JK-Pump-2            PUMP       300.00     0  00:30              1.00
  XR-Pump-1            PUMP        95.00     0  00:20              1.00
  XR-Pump-2            PUMP        95.00     0  00:00              1.00
  XR-Pump-3            PUMP        95.00     0  00:00              1.00
  XR-Pump-4            PUMP        95.00     0  01:00              1.00
  
  
  ***************************
  Flow Classification Summary
  ***************************
  
  -------------------------------------------------------------------------------------
                      Adjusted    ---------- Fraction of Time in Flow Class ---------- 
                       /Actual         Up    Down  Sub   Sup   Up    Down  Norm  Inlet 
  Conduit               Length    Dry  Dry   Dry   Crit  Crit  Crit  Crit  Ltd   Ctrl  
  -------------------------------------------------------------------------------------
  WS02003066WSF200        1.00   0.02  0.03  0.00  0.00  0.95  0.00  0.00  0.63  0.00
  WS02006287WS02006284    1.00   0.04  0.01  0.00  0.54  0.41  0.00  0.00  0.67  0.00
  WS02006284WS02006280    1.00   0.04  0.00  0.00  0.00  0.00  0.00  0.96  0.00  0.00
  WS02006280WS02006229    1.00   0.04  0.00  0.00  0.00  0.00  0.00  0.96  0.00  0.00
  WS02006229WS02006228    1.00   0.00  0.00  0.00  1.00  0.00  0.00  0.00  0.00  0.00
  WS02006256WS02006235    1.00   0.01  0.00  0.00  0.99  0.00  0.00  0.00  0.00  0.00
  WS02006253WS02006251    1.00   0.01  0.03  0.00  0.96  0.00  0.00  0.00  0.00  0.00
  WS02006252WS02006251    1.00   0.07  0.00  0.00  0.00  0.00  0.93  0.00  0.00  0.00
  WS02006251WS02006249    1.00   0.00  0.00  0.00  1.00  0.00  0.00  0.00  0.32  0.00
  WS02006249WS02006248    1.00   0.00  0.00  0.00  0.87  0.00  0.12  0.00  0.00  0.00
  WS02006248WS02006247    1.00   0.00  0.00  0.00  0.97  0.00  0.00  0.02  0.22  0.00
  WS02006247WS02006245    1.00   0.00  0.00  0.00  0.97  0.00  0.00  0.03  0.00  0.00
  WS02006245WS02006243    1.00   0.01  0.00  0.00  0.94  0.00  0.00  0.06  0.02  0.00
  WS02006243WS02006242    1.00   0.01  0.00  0.00  0.99  0.00  0.00  0.00  0.24  0.00
  WS02006242WS02006240    1.00   0.01  0.00  0.00  0.99  0.00  0.00  0.00  0.00  0.00
  WS02006240WS02006239    1.00   0.01  0.00  0.00  0.97  0.00  0.00  0.03  0.02  0.00
  WS02006239WS02006238    1.00   0.01  0.00  0.00  0.99  0.00  0.00  0.00  0.00  0.00
  WS02006238WS02006235    1.00   0.01  0.00  0.00  0.99  0.00  0.00  0.00  0.00  0.00
  WS02006235WS02006234    1.00   0.01  0.00  0.00  0.97  0.00  0.03  0.00  0.00  0.00
  WS02006234WS02006232    1.00   0.01  0.00  0.00  0.99  0.00  0.00  0.00  0.00  0.00
  WS02006232WS02006231    1.00   0.01  0.00  0.00  0.99  0.00  0.00  0.00  0.00  0.00
  WS02006231WS02006230    1.00   0.01  0.00  0.00  0.72  0.00  0.27  0.00  0.00  0.00
  WS02006230WS02006229    1.00   0.00  0.00  0.00  0.99  0.00  0.00  0.01  0.01  0.00
  WS02006228WS02006109    1.00   0.00  0.00  0.00  1.00  0.00  0.00  0.00  0.00  0.00
  WS02006116WS02004401    1.00   0.03  0.00  0.00  0.97  0.00  0.00  0.00  0.00  0.00
  WS02006115WS02006116    1.00   0.03  0.00  0.00  0.97  0.00  0.00  0.01  0.00  0.00
  WS02006113WS02006111    1.00   0.01  0.00  0.00  0.03  0.96  0.00  0.00  0.12  0.00
  WS02006112WS02006115    1.00   0.02  0.01  0.00  0.97  0.00  0.01  0.00  0.00  0.00
  WS02006111WS02006112    1.00   0.02  0.00  0.00  0.98  0.00  0.00  0.00  0.84  0.00
  WS02006110WS02006113    1.00   0.00  0.01  0.00  0.99  0.00  0.00  0.00  0.00  0.00
  WS02006109WS02006110    1.00   0.00  0.00  0.00  1.00  0.00  0.00  0.00  0.00  0.00
  WS02004411WS02004412    1.00   0.04  0.00  0.00  0.96  0.00  0.00  0.00  0.00  0.00
  WS02004401WS02004402    1.00   0.03  0.00  0.00  0.97  0.00  0.00  0.00  0.00  0.00
  WS02004413WS02003067    1.00   0.04  0.01  0.00  0.00  0.00  0.95  0.00  0.00  0.00
  WS02004412WS02004413    1.00   0.04  0.00  0.00  0.96  0.00  0.00  0.00  0.01  0.00
  WS02004410WS02004411    1.00   0.04  0.00  0.00  0.96  0.00  0.00  0.00  0.01  0.00
  WS02004409WS02004410    1.00   0.04  0.00  0.00  0.96  0.00  0.00  0.00  0.03  0.00
  WS02004407WS02004409    1.00   0.04  0.00  0.00  0.96  0.00  0.00  0.00  0.89  0.00
  WS02004406WS02004407    1.00   0.00  0.04  0.00  0.96  0.00  0.00  0.00  0.00  0.00
  WS02004405WS02004406    1.00   0.00  0.00  0.00  1.00  0.00  0.00  0.00  0.04  0.00
  WS02004404WS02004405    1.00   0.00  0.00  0.00  1.00  0.00  0.00  0.00  0.00  0.00
  WS02004403WS02004404    1.00   0.00  0.03  0.00  0.97  0.00  0.00  0.00  0.00  0.00
  WS02004402WS02004403    1.00   0.03  0.00  0.00  0.97  0.00  0.00  0.00  0.00  0.00
  WS02004139WS02001211    1.00   0.00  0.00  0.00  1.00  0.00  0.00  0.00  0.00  0.00
  WS02004138WS02004139    1.00   0.00  0.00  0.00  1.00  0.00  0.00  0.00  1.00  0.00
  WS02003067WS02003066    1.00   0.05  0.00  0.00  0.95  0.00  0.00  0.00  0.00  0.00
  WS02001213WS02003059    1.00   0.00  0.00  0.00  1.00  0.00  0.00  0.00  0.00  0.00
  WS02001212WS02001213    1.00   0.00  0.00  0.00  0.78  0.00  0.22  0.00  0.00  0.00
  WS02001211WS02001212    1.00   0.00  0.00  0.00  1.00  0.00  0.00  0.00  0.00  0.00
  WS02003072WS02003073    1.00   0.00  0.00  0.00  0.00  0.00  0.00  1.00  0.00  0.00
  WS02003069WS02003072    1.00   0.00  0.00  0.00  1.00  0.00  0.00  0.00  0.29  0.00
  WS02003060WS02003069    1.00   0.00  0.00  0.00  1.00  0.00  0.00  0.00  0.17  0.00
  WS02003059WS02003060    1.00   0.00  0.00  0.00  1.00  0.00  0.00  0.00  0.01  0.00
  HS02004901HS02004770    1.00   0.04  0.00  0.00  0.96  0.00  0.00  0.00  0.01  0.00
  HS02004876HS02004881    1.00   0.00  0.00  0.00  0.87  0.13  0.00  0.00  0.00  0.00
  HS02004870HS02004876    1.00   0.00  0.00  0.00  1.00  0.00  0.00  0.00  0.95  0.00
  HS02004842HS02004848    1.00   0.00  0.04  0.00  0.96  0.00  0.00  0.00  0.58  0.00
  HS02004837HS02004842    1.00   0.00  0.00  0.00  1.00  0.00  0.00  0.00  0.11  0.00
  HS02004830HS02004837    1.00   0.00  0.00  0.00  1.00  0.00  0.00  0.00  0.99  0.00
  HS02004824HS02004830    1.00   0.00  0.00  0.00  1.00  0.00  0.00  0.00  0.01  0.00
  HS02004817HS02004824    1.00   0.00  0.00  0.00  1.00  0.00  0.00  0.00  0.98  0.00
  HS02004770HS02004777    1.00   0.00  0.04  0.00  0.96  0.00  0.00  0.00  0.04  0.00
  HS02004799HS02004480    1.00   0.00  0.01  0.00  0.95  0.00  0.04  0.00  0.00  0.00
  HS02004792HS02004799    1.00   0.00  0.00  0.00  1.00  0.00  0.00  0.00  0.98  0.00
  HS02004788HS02004792    1.00   0.00  0.00  0.00  1.00  0.00  0.00  0.00  0.98  0.00
  HS02004785HS02004788    1.00   0.00  0.00  0.00  1.00  0.00  0.00  0.00  0.00  0.00
  HS02004777HS02004785    1.00   0.00  0.00  0.00  1.00  0.00  0.00  0.00  0.15  0.00
  HS02004480HS02004478    1.00   0.04  0.00  0.00  0.63  0.00  0.00  0.33  0.00  0.00
  HS02004479HS02004480    1.00   0.01  0.00  0.00  0.99  0.00  0.00  0.00  0.13  0.00
  HS02004862HS02004870    1.00   0.00  0.00  0.00  1.00  0.00  0.00  0.00  0.06  0.00
  HS02004848HS02004852    1.00   0.04  0.00  0.00  0.96  0.00  0.00  0.00  0.64  0.00
  HS02004856HS02004862    1.00   0.00  0.06  0.00  0.94  0.00  0.00  0.00  0.79  0.00
  HS02004852HS02004856    1.00   0.04  0.00  0.00  0.95  0.00  0.00  0.00  0.81  0.00
  HS02004802HS02004478    1.00   0.04  0.00  0.00  0.95  0.00  0.00  0.00  0.03  0.00
  HS02004478WS02006287    1.00   0.05  0.00  0.00  0.69  0.26  0.00  0.00  0.66  0.00
  HS02004817HS02004807    1.00   0.00  0.04  0.00  0.96  0.00  0.00  0.00  0.01  0.00
  HS02004807HS02004802    1.00   0.04  0.00  0.00  0.95  0.00  0.00  0.00  0.00  0.00
  YS02001759YS02001757    1.00   0.00  0.00  0.00  1.00  0.00  0.00  0.00  0.17  0.00
  YS02001762YS02001759    1.00   0.00  0.00  0.00  1.00  0.00  0.00  0.00  0.04  0.00
  YS02001765YS02001762    1.00   0.00  0.00  0.00  1.00  0.00  0.00  0.00  0.17  0.00
  YS02001770YS02001767    1.00   0.00  0.00  0.00  1.00  0.00  0.00  0.00  0.00  0.00
  YS02001774YS02001770    1.00   0.00  0.04  0.00  0.96  0.00  0.00  0.00  0.04  0.00
  YS02001779YS02001774    1.00   0.00  0.00  0.00  1.00  0.00  0.00  0.00  0.22  0.00
  YS02001649YS02001757    1.00   0.00  0.00  0.00  1.00  0.00  0.00  0.00  0.17  0.00
  YS02001767YS02001765    1.00   0.00  0.00  0.00  1.00  0.00  0.00  0.00  0.01  0.00
  YS02006561YS02001783    1.00   0.06  0.00  0.00  0.51  0.43  0.00  0.00  0.53  0.00
  YS02001783YS02001784    1.00   0.00  0.06  0.00  0.94  0.00  0.00  0.00  0.01  0.00
  YS02001784YS02001785    1.00   0.00  0.00  0.00  1.00  0.00  0.00  0.00  0.21  0.00
  YS02001788YS02001790    1.00   0.00  0.00  0.00  0.61  0.39  0.00  0.00  0.41  0.00
  YS02001790YS02001791    1.00   0.00  0.00  0.00  0.57  0.43  0.00  0.00  0.25  0.00
  YS02001791YS02001793    1.00   0.00  0.00  0.00  0.62  0.38  0.00  0.00  0.03  0.00
  YS02001910YS02001907    1.00   0.00  0.00  0.00  0.99  0.00  0.00  0.00  0.13  0.00
  YS02001786YS02001788    1.00   0.00  0.00  0.00  0.58  0.42  0.00  0.00  0.00  0.00
  YS02001915YS02001910    1.00   0.00  0.00  0.00  0.99  0.01  0.00  0.00  0.19  0.00
  YS02001918YS02001915    1.00   0.00  0.00  0.00  1.00  0.00  0.00  0.00  0.56  0.00
  YS02001923YS02001920    1.00   0.00  0.00  0.00  1.00  0.00  0.00  0.00  0.83  0.00
  YS02001926YS02001923    1.00   0.00  0.03  0.00  0.19  0.00  0.77  0.00  0.00  0.00
  YS02001929YS02001926    1.00   0.00  0.04  0.00  0.96  0.00  0.00  0.00  0.75  0.00
  YS02001920YS02001918    1.00   0.00  0.00  0.00  1.00  0.00  0.00  0.00  0.00  0.00
  YS02001629YS02163301    1.00   0.05  0.00  0.00  0.95  0.00  0.00  0.00  0.00  0.00
  YS02001619YS02001622    1.00   0.04  0.00  0.00  0.96  0.00  0.00  0.00  0.00  0.00
  YS02001622YS02001625    1.00   0.04  0.00  0.00  0.96  0.00  0.00  0.00  0.08  0.00
  YS02001625YS02001629    1.00   0.04  0.02  0.00  0.93  0.00  0.01  0.00  0.00  0.00
  YS02163301YS02001633    1.00   0.00  0.05  0.00  0.95  0.00  0.00  0.00  0.00  0.00
  YS02163601YS02164001    1.00   0.00  0.03  0.00  0.97  0.00  0.00  0.00  0.00  0.00
  YS02164001YS02001641    1.00   0.00  0.03  0.00  0.97  0.00  0.00  0.00  0.06  0.00
  YS02001641YS02001644    1.00   0.00  0.00  0.00  1.00  0.00  0.00  0.00  0.00  0.00
  YS02001647YS02001649    1.00   0.00  0.06  0.00  0.94  0.00  0.00  0.00  0.01  0.00
  YS02006553YS02006556    1.00   0.00  0.00  0.00  1.00  0.00  0.00  0.00  0.03  0.00
  YS02006556YS02006558    1.00   0.00  0.00  0.00  1.00  0.00  0.00  0.00  0.00  0.00
  YSB6556YSB1171          1.00   0.01  0.03  0.00  0.96  0.00  0.00  0.00  0.00  0.00
  YS02001907YS02006553    1.00   0.00  0.00  0.00  1.00  0.00  0.00  0.00  0.00  0.00
  YS02006558YS02006561    1.00   0.06  0.00  0.00  0.23  0.71  0.00  0.00  0.47  0.00
  YS02001633YS02163601    1.00   0.00  0.00  0.00  1.00  0.00  0.00  0.00  0.16  0.00
  YS02001644YS02001647    1.00   0.00  0.06  0.00  0.94  0.00  0.00  0.00  0.00  0.00
  YS02001745YS02001748    1.00   0.00  0.00  0.00  0.88  0.01  0.00  0.11  0.05  0.00
  YS02001748YS02001751    1.00   0.00  0.00  0.00  0.98  0.02  0.00  0.00  0.15  0.00
  YS02001751YS02001754    1.00   0.00  0.00  0.00  0.94  0.00  0.00  0.06  0.02  0.00
  YS02001754YS02001757    1.00   0.00  0.00  0.00  1.00  0.00  0.00  0.00  0.21  0.00
  YS02001882YS02001884    1.00   0.05  0.00  0.00  0.95  0.00  0.00  0.00  0.00  0.00
  YS02001884YS02001887    1.00   0.02  0.02  0.00  0.96  0.00  0.00  0.00  0.00  0.00
  YS02001890YS02001895    1.00   0.00  0.05  0.00  0.95  0.00  0.00  0.00  0.00  0.00
  YS02001895YS02001898    1.00   0.05  0.00  0.00  0.94  0.00  0.01  0.00  0.00  0.00
  YS02001898YS02001901    1.00   0.05  0.00  0.00  0.95  0.00  0.00  0.00  0.03  0.00
  YS02001901YS02001904    1.00   0.05  0.00  0.00  0.95  0.00  0.00  0.00  0.00  0.00
  YS02001904YS02001907    1.00   0.00  0.05  0.00  0.95  0.00  0.00  0.00  0.00  0.00
  YS02001887YS02001890    1.00   0.00  0.00  0.00  0.99  0.00  0.00  0.00  0.00  0.00
  YS02001652YS02001649    1.00   0.00  0.00  0.00  1.00  0.00  0.00  0.00  0.19  0.00
  YS02001655YS02001652    1.00   0.00  0.00  0.00  0.94  0.00  0.00  0.06  0.03  0.00
  YS02001658YS02001655    1.00   0.00  0.05  0.00  0.93  0.03  0.00  0.00  0.13  0.00
  YS02001661YS02001658    1.00   0.05  0.00  0.00  0.87  0.08  0.00  0.00  0.10  0.00
  YS02001664YS02001661    1.00   0.04  0.00  0.00  0.84  0.12  0.00  0.00  0.23  0.00
  YSB1154YSB6556          1.00   0.04  0.00  0.00  0.96  0.00  0.00  0.00  0.02  0.00
  YSB1174YSB1171          1.00   0.01  0.03  0.00  0.96  0.00  0.00  0.00  0.00  0.00
  YSB1171HS02004479       1.00   0.01  0.00  0.00  0.99  0.00  0.00  0.00  0.11  0.00
  HS02004881HS02006253    1.00   0.01  0.00  0.00  0.84  0.00  0.00  0.15  0.60  0.00
  YS02001793JiankangQianchi    1.00   0.00  0.00  0.00  0.72  0.28  0.00  0.00  0.12  0.00
  YS02001757CaochengTiaoxuchi    1.00   0.00  0.07  0.00  0.85  0.07  0.00  0.00  0.00  0.00
  WSF200WS02003060        1.00   0.00  0.02  0.00  0.51  0.47  0.00  0.00  0.40  0.00
  1                       1.00   0.00  0.00  0.00  0.00  1.00  0.00  0.00  0.42  0.00
  2                       1.00   0.57  0.00  0.00  0.00  0.43  0.00  0.00  0.08  0.00
  3                       1.00   0.14  0.00  0.00  0.00  0.86  0.00  0.00  0.06  0.00
  4                       1.00   1.00  0.00  0.00  0.00  0.00  0.00  0.00  0.00  0.00
  
  
  *************************
  Conduit Surcharge Summary
  *************************
  
  ----------------------------------------------------------------------------
                                                           Hours        Hours 
                         --------- Hours Full --------   Above Full   Capacity
  Conduit                Both Ends  Upstream  Dnstream   Normal Flow   Limited
  ----------------------------------------------------------------------------
  WS02006229WS02006228        2.20      2.46      2.20      4.48         2.19
  WS02006256WS02006235        5.53      5.54      7.31      2.46         0.01
  WS02006253WS02006251        0.01      0.01      0.21      0.01         0.01
  WS02006252WS02006251        1.10      1.10      1.84      1.65         0.01
  WS02006251WS02006249        0.01      0.03      0.01      1.24         0.01
  WS02006249WS02006248        0.01      0.01      0.01      4.47         0.01
  WS02006248WS02006247        0.01      0.01      0.14      0.01         0.01
  WS02006247WS02006245        0.08      0.32      0.08      4.74         0.08
  WS02006245WS02006243        0.34      0.34      0.72      0.01         0.01
  WS02006243WS02006242        0.78      0.78      1.80      0.01         0.01
  WS02006242WS02006240        1.09      1.09      2.06      1.63         0.01
  WS02006240WS02006239        1.12      1.12      1.15      0.01         0.01
  WS02006239WS02006238        1.95      1.95      2.02      0.03         0.04
  WS02006238WS02006235        1.96      1.96      2.25      0.01         0.02
  WS02006235WS02006234        1.15      1.15      1.85      5.55         0.01
  WS02006234WS02006232        1.20      1.20      2.30      0.01         0.01
  WS02006232WS02006231        1.06      1.06      2.30      0.01         0.01
  WS02006231WS02006230        0.79      0.79      1.08      5.67         0.01
  WS02006230WS02006229        3.52      4.33      3.52      6.03         3.52
  WS02006228WS02006109        2.29      2.89      2.29      4.76         2.29
  WS02006116WS02004401        0.32      0.32      0.33      0.22         0.22
  WS02006115WS02006116        0.13      0.13      0.13      0.05         0.05
  WS02006112WS02006115        0.10      0.10      1.23      0.01         0.01
  WS02006111WS02006112        0.01      0.01      4.40      0.01         0.01
  WS02006110WS02006113        0.01      0.01      2.68      0.01         0.01
  WS02006109WS02006110        1.16      1.16      2.89      1.16         0.01
  WS02004411WS02004412        0.01      0.01      0.01      0.29         0.01
  WS02004401WS02004402        0.33      0.33      0.39      0.01         0.01
  WS02004410WS02004411        0.01      0.01      0.01      0.20         0.01
  WS02004409WS02004410        0.01      0.01      0.01      0.07         0.01
  WS02004406WS02004407        0.01      0.01      0.66      0.01         0.01
  WS02004405WS02004406        0.66      0.74      0.66      1.19         0.66
  WS02004404WS02004405        0.74      0.82      0.74      5.54         0.74
  WS02004403WS02004404        0.41      0.41      0.82      0.01         0.01
  WS02004402WS02004403        0.39      0.39      0.41      0.31         0.32
  WS02003072WS02003073        0.01      0.01      0.01      4.88         0.01
  HS02004876HS02004881        0.01      0.01      0.01      0.17         0.01
  HS02004785HS02004788        0.01      0.01      0.01      0.10         0.01
  HS02004480HS02004478        0.01      0.01      0.01      0.52         0.01
  YS02001759YS02001757        5.54      5.54      5.62      0.01         0.01
  YS02001762YS02001759        5.51      5.51      5.54      0.01         0.01
  YS02001765YS02001762        5.48      5.48      5.51      0.01         0.01
  YS02001770YS02001767        5.46      5.46      5.46      0.34         0.78
  YS02001774YS02001770        5.40      5.40      5.50      0.01         0.01
  YS02001779YS02001774        5.22      5.22      5.50      0.01         0.01
  YS02001649YS02001757        5.52      5.52      5.62      0.01         0.01
  YS02001767YS02001765        5.46      5.46      5.48      0.01         0.01
  YS02006561YS02001783        0.89      0.89      1.39      0.01         0.01
  YS02001783YS02001784        1.38      1.39      1.45      1.35         1.19
  YS02001784YS02001785        1.39      1.45      1.39      2.23         1.39
  YS02001788YS02001790        1.38      1.38      3.29      0.01         0.01
  YS02001790YS02001791        3.29      3.29      3.47      0.75         0.74
  YS02001791YS02001793        3.47      3.47      3.88      0.01         0.01
  YS02001910YS02001907        1.20      1.20      1.65      0.01         0.01
  YS02001786YS02001788        1.38      1.39      1.38      1.88         1.38
  YS02001915YS02001910        1.01      1.01      1.20      0.01         0.01
  YS02001918YS02001915        0.78      0.78      1.01      0.01         0.01
  YS02001923YS02001920        0.60      0.60      0.81      0.01         0.01
  YS02001926YS02001923        0.01      0.01      0.01      0.01         0.01
  YS02001929YS02001926        0.01      0.01      0.01      0.01         0.01
  YS02001920YS02001918        0.77      0.78      0.81      0.01         0.01
  YS02001629YS02163301        5.42      5.42      5.45      0.01         0.01
  YS02001619YS02001622        5.13      5.13      5.14      0.01         0.01
  YS02001622YS02001625        5.14      5.14      5.28      0.01         0.01
  YS02001625YS02001629        5.13      5.13      5.28      0.01         0.01
  YS02163301YS02001633        5.45      5.45      5.49      0.01         0.01
  YS02163601YS02164001        5.49      5.49      5.52      0.01         0.01
  YS02164001YS02001641        5.49      5.49      5.50      0.01         0.01
  YS02001641YS02001644        5.50      5.50      5.50      1.47         1.51
  YS02001647YS02001649        5.26      5.26      5.52      0.01         0.01
  YS02006553YS02006556        1.41      1.41      1.72      0.01         0.01
  YS02006556YS02006558        1.54      1.54      1.79      0.01         0.01
  YS02001907YS02006553        2.25      2.25      2.48      0.01         0.01
  YS02006558YS02006561        1.10      1.37      1.10      2.09         1.10
  YS02001633YS02163601        5.48      5.48      5.52      0.01         0.01
  YS02001644YS02001647        5.26      5.26      5.50      0.01         0.01
  YS02001745YS02001748        0.01      0.01      4.99      0.01         0.01
  YS02001748YS02001751        5.03      5.03      5.10      0.01         0.01
  YS02001751YS02001754        5.10      5.10      5.23      0.01         0.01
  YS02001754YS02001757        5.26      5.26      5.62      0.01         0.01
  YS02001882YS02001884        1.02      1.02      1.05      0.01         0.01
  YS02001884YS02001887        1.10      1.10      1.12      0.01         0.01
  YS02001890YS02001895        0.99      0.99      1.22      0.01         0.01
  YS02001895YS02001898        0.98      0.98      0.99      0.01         0.01
  YS02001898YS02001901        1.00      1.00      1.09      0.01         0.01
  YS02001901YS02001904        1.07      1.07      1.09      0.01         0.01
  YS02001904YS02001907        1.07      1.07      1.75      0.01         0.01
  YS02001887YS02001890        1.15      1.15      1.18      0.07         0.01
  YS02001652YS02001649        5.27      5.27      5.52      0.01         0.01
  YS02001655YS02001652        5.13      5.13      5.26      0.01         0.01
  YS02001658YS02001655        5.01      5.01      5.13      0.01         0.01
  YS02001661YS02001658        0.16      0.16      5.01      0.01         0.02
  YS02001664YS02001661        0.01      0.01      0.99      0.01         0.01
  YS02001793JiankangQianchi        3.77      3.77      4.91      0.01         0.01
  YS02001757CaochengTiaoxuchi        4.79      4.79      5.62      0.01         0.01
  
  
  ***************
  Pumping Summary
  ***************
  
  ---------------------------------------------------------------------------------------------------------
                                                  Min       Avg       Max     Total     Power    % Time Off
                        Percent   Number of      Flow      Flow      Flow    Volume     Usage    Pump Curve
  Pump                 Utilized   Start-Ups       LPS       LPS       LPS  10^6 ltr     Kw-hr    Low   High
  ---------------------------------------------------------------------------------------------------------
  CC-Pump-1               59.51           6      0.00    133.20    200.00     2.219      3.46    0.0   14.5
  CC-Pump-2               53.13           5      0.00    155.03    200.00     2.302      4.27    0.0   16.2
  JK-Pump-1               59.57           6      0.00    175.88    300.00     2.485     22.77    0.0    0.0
  JK-Pump-2               78.71           7      0.00    192.50    300.00     3.355     30.43    0.0    0.0
  XR-Pump-1               82.95          10      0.00     60.17     95.00     1.397     10.55    0.0    0.0
  XR-Pump-2               63.82           7      0.00     65.45     95.00     1.225      9.52    0.0    0.0
  XR-Pump-3               82.98           6      0.00     73.15     95.00     1.682     12.32    0.0    0.0
  XR-Pump-4               87.21          10      0.00     63.85     95.00     1.567     10.92    0.0    0.0
  

  Analysis begun on:  Tue Dec 14 15:14:39 2021
  Analysis ended on:  Tue Dec 14 15:14:43 2021
  Total elapsed time: 00:00:04