
  EPA STORM WATER MANAGEMENT MODEL - VERSION 5.1 (Build 5.3.0.dev0)
  --------------------------------------------------------------

  WARNING 04: minimum elevation drop used for Conduit WS02004404WS02004405
  WARNING 03: negative offset ignored for Link YS02001904YS02001907
  
  *********************************************************
  NOTE: The summary statistics displayed in this report are
  based on results found at every computational time step,  
  not just on results from each reporting time step.
  *********************************************************
  
  ****************
  Analysis Options
  ****************
  Flow Units ............... LPS
  Process Models:
    Rainfall/Runoff ........ YES
    RDII ................... NO
    Snowmelt ............... NO
    Groundwater ............ NO
    Flow Routing ........... YES
    Ponding Allowed ........ NO
    Water Quality .......... NO
  Infiltration Method ...... HORTON
  Flow Routing Method ...... DYNWAVE
  Surcharge Method ......... EXTRAN
  Starting Date ............ 08/28/2015 08:00:00
  Ending Date .............. 08/28/2015 15:50:00
  Antecedent Dry Days ...... 8.0
  Report Time Step ......... 00:01:00
  Wet Time Step ............ 00:01:00
  Dry Time Step ............ 00:01:00
  Routing Time Step ........ 5.00 sec
  Variable Time Step ....... YES
  Maximum Trials ........... 8
  Number of Threads ........ 4
  Head Tolerance ........... 0.001500 m
  
  
  **************************        Volume         Depth
  Runoff Quantity Continuity     hectare-m            mm
  **************************     ---------       -------
  Total Precipitation ......         5.151        11.277
  Evaporation Loss .........         0.000         0.000
  Infiltration Loss ........         1.323         2.897
  Surface Runoff ...........         2.817         6.167
  Final Storage ............         1.011         2.215
  Continuity Error (%) .....        -0.015
  
  
  **************************        Volume        Volume
  Flow Routing Continuity        hectare-m      10^6 ltr
  **************************     ---------     ---------
  Dry Weather Inflow .......         0.616         6.165
  Wet Weather Inflow .......         2.816        28.156
  Groundwater Inflow .......         0.000         0.000
  RDII Inflow ..............         0.000         0.000
  External Inflow ..........         0.102         1.024
  External Outflow .........         1.793        17.926
  Flooding Loss ............         1.237        12.375
  Evaporation Loss .........         0.000         0.000
  Exfiltration Loss ........         0.000         0.000
  Initial Stored Volume ....         0.076         0.761
  Final Stored Volume ......         0.628         6.277
  Continuity Error (%) .....        -1.308
  
  
  *************************
  Highest Continuity Errors
  *************************
  Node HS02004842 (17.03%)
  Node YS02001884 (11.07%)
  Node JK-storage (-5.37%)
  Node YSB1171 (3.39%)
  Node HS02004817 (3.15%)
  
  
  ***************************
  Time-Step Critical Elements
  ***************************
  Link 3 (51.12%)
  Link WS02006252WS02006251 (39.81%)
  Link WS02006238WS02006235 (2.78%)
  
  
  ********************************
  Highest Flow Instability Indexes
  ********************************
  Link WS02006113WS02006111 (43)
  Link YS02163601YS02164001 (39)
  Link YS02163301YS02001633 (38)
  Link YS02001629YS02163301 (38)
  Link YS02001619YS02001622 (38)
  
  
  *************************
  Routing Time Step Summary
  *************************
  Minimum Time Step           :     0.17 sec
  Average Time Step           :     0.82 sec
  Maximum Time Step           :     5.00 sec
  Percent in Steady State     :    -0.00
  Average Iterations per Step :     4.61
  Percent Not Converging      :    22.14
  
  
  ***************************
  Subcatchment Runoff Summary
  ***************************
  
  ------------------------------------------------------------------------------------------------------------------------------
                            Total      Total      Total      Total     Imperv       Perv      Total       Total     Peak  Runoff
                           Precip      Runon       Evap      Infil     Runoff     Runoff     Runoff      Runoff   Runoff   Coeff
  Subcatchment                 mm         mm         mm         mm         mm         mm         mm    10^6 ltr      LPS
  ------------------------------------------------------------------------------------------------------------------------------
  sub0                      11.28       0.00       0.00       0.79       9.22       0.00       9.22        0.01     1.44   0.818
  sub1                      11.28       0.00       0.00       1.24       8.78       0.00       8.78        0.06    10.11   0.778
  sub2                      11.28       0.00       0.00       4.17       6.20       0.00       6.20        0.06     9.79   0.549
  sub3                      11.28       0.00       0.00       4.17       6.16       0.00       6.16        0.14    22.44   0.546
  sub4                      11.28       0.00       0.00       1.24       8.63       0.00       8.63        0.18    27.35   0.765
  sub5                      11.28       0.00       0.00       0.79       9.17       0.00       9.17        0.10    18.00   0.813
  sub7                      11.28       0.00       0.00       1.01       9.01       0.00       9.01        0.03     5.34   0.799
  sub8                      11.28       0.00       0.00       1.01       9.00       0.00       9.00        0.06    10.08   0.798
  sub9                      11.28       0.00       0.00       1.01       8.99       0.00       8.99        0.04     7.58   0.798
  sub10                     11.28       0.00       0.00       0.90       9.08       0.00       9.08        0.10    17.43   0.805
  sub11                     11.28       0.00       0.00       0.90       9.10       0.00       9.10        0.11    18.56   0.807
  sub12                     11.28       0.00       0.00       1.47       8.62       0.00       8.62        0.08    13.79   0.765
  sub14                     11.28       0.00       0.00       1.01       8.99       0.00       8.99        0.09    14.98   0.797
  sub15                     11.28       0.00       0.00       3.38       6.91       0.00       6.91        0.12    20.76   0.613
  sub16                     11.28       0.00       0.00       3.72       6.64       0.00       6.64        0.07    12.34   0.589
  sub17                     11.28       0.00       0.00       3.61       6.73       0.00       6.73        0.06    10.18   0.597
  sub22                     11.28       0.00       0.00       4.85       5.64       0.00       5.64        0.36    62.58   0.500
  sub23                     11.28       0.00       0.00       4.17       6.23       0.00       6.23        0.30    52.29   0.553
  sub60                     11.28       0.00       0.00       1.35       7.08       0.00       7.08        2.14   214.31   0.627
  sub61                     11.28       0.00       0.00       1.92       7.22       0.00       7.22        2.23   246.69   0.640
  sub62                     11.28       0.00       0.00       0.90       7.84       0.00       7.84        2.41   259.66   0.695
  sub63                     11.28       0.00       0.00       3.27       6.33       0.00       6.33        1.92   219.77   0.561
  sub64                     11.28       0.00       0.00       1.69       6.79       0.00       6.79        2.06   204.52   0.602
  sub65                     11.28       0.00       0.00       1.47       6.90       0.00       6.90        2.12   208.50   0.612
  sub66                     11.28       0.00       0.00       3.27       5.83       0.00       5.83        1.79   183.42   0.517
  sub67                     11.28       0.00       0.00       0.90       8.30       0.00       8.30        2.56   301.39   0.736
  sub68                     11.28       0.00       0.00       1.58       7.60       0.00       7.60        2.34   264.96   0.674
  sub69                     11.28       0.00       0.00       1.69       7.90       0.00       7.90        1.85   237.25   0.701
  sub70                     11.28       8.07       0.00       6.54      10.49       0.03      10.52        2.41   252.63   0.544
  sub71                     11.28       0.00       0.00       0.90       7.63       0.00       7.63        1.80   186.96   0.676
  sub72                     11.28       0.00       0.00       0.79       6.02       0.00       6.02        1.23   100.40   0.534
  sub73                     11.28      10.24       0.00       7.30      11.40       0.02      11.42        2.68   238.40   0.531
  sub74                     11.28       0.00       0.00       8.46       2.36       0.00       2.36        0.94   126.51   0.209
  
  
  ******************
  Node Depth Summary
  ******************
  
  ---------------------------------------------------------------------------------
                                 Average  Maximum  Maximum  Time of Max    Reported
                                   Depth    Depth      HGL   Occurrence   Max Depth
  Node                 Type       Meters   Meters   Meters  days hr:min      Meters
  ---------------------------------------------------------------------------------
  WS02001211           JUNCTION     0.63     0.79     5.63     0  02:18        0.79
  WS02001212           JUNCTION     0.36     0.51     5.57     0  02:17        0.51
  WS02001213           JUNCTION     0.59     0.76     5.52     0  02:16        0.76
  WS02003069           JUNCTION     0.42     0.58     5.17     0  02:15        0.58
  WS02003072           JUNCTION     0.49     0.64     5.01     0  02:16        0.64
  WS02003073           JUNCTION     0.29     0.40     4.46     0  02:16        0.40
  WS02003060           JUNCTION     0.38     0.52     5.45     0  02:14        0.52
  WS02003066           JUNCTION     0.23     0.31     5.86     0  02:27        0.31
  WS02003059           JUNCTION     0.66     0.81     5.50     0  02:16        0.81
  WS02003067           JUNCTION     0.57     0.72     6.04     0  02:27        0.72
  WS02004401           JUNCTION     0.68     0.89     6.89     0  02:23        0.89
  WS02004402           JUNCTION     0.71     0.92     6.88     0  02:23        0.91
  WS02004403           JUNCTION     0.73     0.93     6.86     0  02:23        0.93
  WS02004404           JUNCTION     0.80     1.00     6.85     0  02:23        1.00
  WS02004406           JUNCTION     0.81     0.98     6.81     0  02:24        0.98
  WS02004409           JUNCTION     0.49     0.70     6.47     0  02:26        0.70
  WS02004410           JUNCTION     0.51     0.71     6.43     0  02:26        0.71
  WS02004411           JUNCTION     0.53     0.72     6.40     0  02:26        0.72
  WS02004412           JUNCTION     0.54     0.72     6.36     0  02:27        0.72
  WS02004413           JUNCTION     0.70     0.88     6.35     0  02:27        0.88
  WS02004405           JUNCTION     0.80     0.99     6.84     0  02:23        0.99
  WS02006109           JUNCTION     0.76     1.02     7.64     0  02:20        1.02
  WS02006110           JUNCTION     0.75     0.96     7.54     0  02:20        0.96
  WS02006111           JUNCTION     0.22     0.30     7.01     0  02:21        0.30
  WS02006112           JUNCTION     0.84     1.18     7.07     0  02:23        1.11
  WS02006113           JUNCTION     0.34     0.48     7.37     0  02:21        0.48
  WS02006115           JUNCTION     0.57     0.80     6.93     0  02:22        0.80
  WS02006116           JUNCTION     0.65     0.87     6.91     0  02:23        0.87
  WS02006230           JUNCTION     0.72     1.09     7.83     0  02:19        1.08
  WS02006231           JUNCTION     0.47     0.77     7.90     0  02:19        0.75
  WS02006232           JUNCTION     0.61     0.92     7.95     0  02:20        0.87
  WS02006234           JUNCTION     0.52     0.88     8.03     0  02:19        0.80
  WS02006235           JUNCTION     0.55     0.89     8.05     0  02:19        0.83
  WS02006238           JUNCTION     0.58     0.91     8.05     0  02:19        0.86
  WS02006240           JUNCTION     0.47     0.81     8.10     0  02:20        0.79
  WS02006242           JUNCTION     0.52     0.86     8.13     0  02:18        0.85
  WS02006243           JUNCTION     0.39     0.77     8.19     0  02:20        0.74
  WS02006245           JUNCTION     0.37     0.70     8.19     0  02:21        0.69
  WS02006247           JUNCTION     0.38     1.36     8.86     0  02:19        0.71
  WS02006248           JUNCTION     0.33     0.67     8.26     0  02:19        0.63
  WS02006249           JUNCTION     0.36     0.65     8.24     0  02:20        0.64
  WS02006239           JUNCTION     0.53     0.87     8.08     0  02:20        0.83
  WS02006251           JUNCTION     0.35     0.69     8.36     0  02:20        0.67
  WS02006252           JUNCTION     0.30     0.59     8.83     0  02:19        0.59
  WS02006253           JUNCTION     0.38     0.72     8.37     0  02:20        0.69
  WS02006256           JUNCTION     1.06     1.21     8.15     0  02:20        1.21
  WS02004138           JUNCTION     0.14     0.19     7.44     0  02:12        0.19
  WS02004407           JUNCTION     0.22     0.31     6.62     0  02:24        0.31
  WS02006228           JUNCTION     0.76     1.08     7.73     0  02:20        1.07
  WS02006229           JUNCTION     0.73     1.08     7.77     0  02:20        1.08
  WS02006280           JUNCTION     0.07     0.16     8.44     0  02:09        0.16
  WS02006284           JUNCTION     0.37     0.51     8.91     0  02:09        0.51
  WS02006287           JUNCTION     0.10     0.24     9.20     0  02:09        0.24
  WSF200               JUNCTION     0.22     0.33     5.56     0  02:28        0.33
  HS02004901           JUNCTION     0.13     0.25    10.07     0  02:07        0.25
  HS02004881           JUNCTION     0.01     0.03     9.06     0  02:08        0.03
  HS02004876           JUNCTION     0.05     0.11     9.14     0  02:05        0.11
  HS02004870           JUNCTION     0.02     0.05     9.34     0  02:09        0.05
  HS02004862           JUNCTION     0.02     0.06     9.44     0  02:09        0.06
  HS02004856           JUNCTION     0.08     0.11     9.54     0  02:09        0.11
  HS02004852           JUNCTION     0.01     0.04     9.55     0  02:09        0.04
  HS02004848           JUNCTION     0.01     0.04     9.64     0  02:09        0.04
  HS02004842           JUNCTION     0.33     0.37     9.64     0  02:09        0.37
  HS02004837           JUNCTION     0.03     0.06     9.64     0  02:09        0.06
  HS02004830           JUNCTION     0.04     0.07     9.54     0  02:09        0.07
  HS02004824           JUNCTION     0.02     0.05     9.45     0  02:10        0.05
  HS02004817           JUNCTION     0.44     0.56     9.40     0  02:09        0.56
  HS02004807           JUNCTION     0.13     0.23     9.40     0  02:09        0.23
  HS02004802           JUNCTION     0.16     0.26     9.39     0  02:09        0.26
  HS02004799           JUNCTION     0.12     0.28     9.49     0  02:07        0.28
  HS02004792           JUNCTION     0.03     0.11     9.63     0  02:07        0.11
  HS02004788           JUNCTION     0.03     0.08     9.98     0  02:08        0.08
  HS02004785           JUNCTION     0.05     0.15    10.05     0  02:08        0.15
  HS02004777           JUNCTION     0.15     0.27    10.06     0  02:07        0.27
  HS02004770           JUNCTION     0.12     0.24    10.07     0  02:07        0.24
  HS02004480           JUNCTION     0.08     0.22     9.46     0  02:07        0.22
  HS02004479           JUNCTION     0.12     0.26     9.46     0  02:08        0.26
  HS02004478           JUNCTION     0.06     0.15     9.38     0  02:08        0.15
  YS02001745           JUNCTION     0.70     0.89     8.41     0  03:02        0.89
  YS02001748           JUNCTION     1.09     2.27     9.35     0  02:24        1.33
  YS02001751           JUNCTION     1.28     2.20     9.08     0  02:25        1.53
  YS02001754           JUNCTION     1.53     2.13     8.74     0  02:25        1.81
  YS02001762           JUNCTION     1.73     2.03     8.43     0  03:08        2.02
  YS02001765           JUNCTION     1.69     1.98     8.43     0  03:06        1.96
  YS02001767           JUNCTION     1.65     1.93     8.42     0  03:08        1.92
  YS02001770           JUNCTION     1.64     1.92     8.41     0  02:24        1.90
  YS02001774           JUNCTION     1.71     1.99     8.41     0  02:24        1.96
  YS02001779           JUNCTION     1.46     1.68     8.37     0  02:24        1.68
  YS02001882           JUNCTION     0.46     1.18     7.90     0  02:57        1.17
  YS02001884           JUNCTION     0.55     1.28     7.90     0  02:57        1.27
  YS02001759           JUNCTION     1.77     2.07     8.43     0  03:06        2.06
  YS02001887           JUNCTION     0.63     1.36     7.90     0  02:57        1.35
  YS02001890           JUNCTION     0.66     1.39     7.89     0  02:57        1.38
  YS02001898           JUNCTION     0.43     1.14     7.88     0  02:57        1.14
  YS02001901           JUNCTION     0.55     1.27     7.88     0  02:56        1.26
  YS02001904           JUNCTION     0.53     1.24     7.87     0  02:57        1.24
  YS02001907           JUNCTION     0.86     1.58     7.87     0  02:57        1.58
  YS02001910           JUNCTION     0.65     1.37     7.88     0  02:57        1.36
  YS02001915           JUNCTION     0.44     1.16     7.88     0  02:58        1.15
  YS02001918           JUNCTION     0.19     0.81     7.88     0  02:58        0.81
  YS02001619           JUNCTION     1.24     1.61     8.54     0  02:18        1.49
  YS02001629           JUNCTION     1.60     1.85     8.40     0  02:21        1.84
  YS02001641           JUNCTION     1.70     1.96     8.39     0  02:25        1.93
  YS02001644           JUNCTION     1.70     1.92     8.35     0  02:24        1.92
  YS02001652           JUNCTION     1.55     2.16     8.76     0  02:37        2.07
  YS02001655           JUNCTION     1.31     2.20     9.05     0  02:18        1.81
  YS02001920           JUNCTION     0.29     0.87     7.88     0  02:57        0.87
  YS02001923           JUNCTION     0.14     0.62     7.88     0  02:58        0.61
  YS02001926           JUNCTION     0.21     0.44     7.88     0  02:58        0.43
  YS02001929           JUNCTION     0.10     0.17     7.86     0  02:58        0.17
  YS02001658           JUNCTION     1.04     2.30     9.44     0  02:18        1.64
  YS02001661           JUNCTION     0.80     2.46     9.86     0  02:39        1.46
  YS02001664           JUNCTION     0.35     0.57     8.50     0  02:38        0.56
  YS02001622           JUNCTION     1.27     1.62     8.52     0  02:20        1.50
  YS02001633           JUNCTION     1.69     1.99     8.45     0  02:26        1.93
  YS02001649           JUNCTION     1.74     2.05     8.44     0  02:19        2.05
  YS02001757           JUNCTION     1.86     2.18     8.44     0  03:04        2.17
  YS02001895           JUNCTION     0.42     1.14     7.89     0  02:57        1.13
  YS02001625           JUNCTION     1.55     1.78     8.38     0  02:20        1.78
  YS02163301           JUNCTION     1.63     1.91     8.43     0  02:26        1.87
  YS02163601           JUNCTION     1.74     2.03     8.43     0  02:26        1.98
  YS02164001           JUNCTION     1.68     1.96     8.42     0  02:25        1.91
  YS02001647           JUNCTION     1.53     1.80     8.41     0  02:49        1.79
  YSB1154              JUNCTION     0.26     0.41     9.47     0  02:08        0.41
  YSB6556              JUNCTION     0.15     0.30     9.47     0  02:07        0.30
  YSB1174              JUNCTION     0.21     0.36     9.47     0  02:08        0.36
  YSB1171              JUNCTION     0.41     0.56     9.47     0  02:08        0.56
  YS02006553           JUNCTION     0.86     1.58     7.86     0  02:58        1.57
  YS02006561           JUNCTION     0.26     0.80     7.46     0  02:57        0.80
  YS02006556           JUNCTION     0.83     1.53     7.84     0  02:57        1.52
  YS02006558           JUNCTION     0.87     1.57     7.84     0  02:57        1.56
  YS02001783           JUNCTION     0.49     1.23     7.37     0  02:57        1.22
  YS02001784           JUNCTION     0.52     1.21     7.27     0  02:56        1.20
  YS02001786           JUNCTION     0.48     1.18     7.21     0  02:19        1.09
  YS02001788           JUNCTION     0.43     1.29     7.27     0  02:19        1.01
  YS02001790           JUNCTION     0.59     1.32     6.97     0  02:19        1.21
  YS02001791           JUNCTION     0.60     1.26     6.73     0  02:19        1.24
  YS02001793           JUNCTION     0.87     2.33     7.16     0  02:13        1.80
  WS02004139           JUNCTION     0.57     0.74     5.65     0  02:18        0.74
  WSC                  OUTFALL      0.29     0.40     1.07     0  02:17        0.40
  3                    OUTFALL      0.10     0.21     6.21     0  02:20        0.21
  4                    OUTFALL      0.02     0.15     7.15     0  02:20        0.14
  5                    OUTFALL      0.00     0.00     5.00     0  00:00        0.00
  JK-storage           STORAGE      3.10     5.80     6.60     0  02:20        5.80
  CC-storage           STORAGE      1.10     1.40     8.40     0  03:01        1.40
  XR-storage           STORAGE      7.43     7.72     5.72     0  02:06        7.72
  
  
  *******************
  Node Inflow Summary
  *******************
  
  -------------------------------------------------------------------------------------------------
                                  Maximum  Maximum                  Lateral       Total        Flow
                                  Lateral    Total  Time of Max      Inflow      Inflow     Balance
                                   Inflow   Inflow   Occurrence      Volume      Volume       Error
  Node                 Type           LPS      LPS  days hr:min    10^6 ltr    10^6 ltr     Percent
  -------------------------------------------------------------------------------------------------
  WS02001211           JUNCTION      7.35   388.07     0  02:20       0.207        6.08       0.494
  WS02001212           JUNCTION      0.00   388.54     0  02:20           0        6.05       0.280
  WS02001213           JUNCTION      0.00   388.99     0  02:20           0        6.03       0.366
  WS02003069           JUNCTION      0.32   945.58     0  02:15     0.00902        14.1       0.209
  WS02003072           JUNCTION      0.00   945.48     0  02:15           0        14.1       0.259
  WS02003073           JUNCTION      1.82   947.30     0  02:16      0.0514        14.1       0.291
  WS02003060           JUNCTION     16.53   945.29     0  02:14       0.466        14.1       0.199
  WS02003066           JUNCTION      0.00   582.61     0  02:27           0        7.67       0.064
  WS02003059           JUNCTION      0.00   389.56     0  02:19           0        6.01       0.592
  WS02003067           JUNCTION      0.00   582.57     0  02:27           0        7.68       0.131
  WS02004401           JUNCTION      0.00   589.09     0  02:23           0        7.94       0.288
  WS02004402           JUNCTION      0.00   587.92     0  02:23           0        7.91       0.270
  WS02004403           JUNCTION      0.00   587.23     0  02:23           0        7.89       0.244
  WS02004404           JUNCTION      0.16   586.95     0  02:23     0.00457        7.88       0.183
  WS02004406           JUNCTION      0.00   586.81     0  02:24           0        7.84       0.445
  WS02004409           JUNCTION      0.00   586.53     0  02:24           0         7.8       0.236
  WS02004410           JUNCTION      0.00   584.55     0  02:24           0        7.78       0.264
  WS02004411           JUNCTION      0.00   583.15     0  02:25           0        7.76       0.269
  WS02004412           JUNCTION      0.00   582.77     0  02:27           0        7.74       0.287
  WS02004413           JUNCTION      0.00   582.75     0  02:27           0        7.72       0.419
  WS02004405           JUNCTION      0.04   586.86     0  02:23     0.00107        7.86       0.272
  WS02006109           JUNCTION      1.23   585.50     0  02:20      0.0347        8.01       0.255
  WS02006110           JUNCTION      0.00   585.46     0  02:20           0        7.99       0.257
  WS02006111           JUNCTION      0.00   612.30     0  02:21           0        7.95       0.062
  WS02006112           JUNCTION     10.18   601.23     0  02:21      0.0577        8.01       0.378
  WS02006113           JUNCTION      0.00   585.93     0  02:20           0        7.96       0.129
  WS02006115           JUNCTION      0.00   609.92     0  02:22           0        7.98       0.274
  WS02006116           JUNCTION      0.00   591.61     0  02:23           0        7.96       0.259
  WS02006230           JUNCTION     10.28   396.36     0  04:41        0.29        6.26       0.212
  WS02006231           JUNCTION      0.00   386.06     0  04:41           0        5.98       0.205
  WS02006232           JUNCTION      0.00   386.07     0  04:32           0           6       0.278
  WS02006234           JUNCTION      0.00   386.88     0  07:04           0        6.01       0.140
  WS02006235           JUNCTION      0.00   387.94     0  07:04           0        6.05       0.188
  WS02006238           JUNCTION      0.00   314.58     0  07:10           0        3.72       0.216
  WS02006240           JUNCTION      0.00   315.62     0  07:02           0        3.71       0.336
  WS02006242           JUNCTION      0.00   326.34     0  07:01           0        3.72       0.409
  WS02006243           JUNCTION      0.00   335.63     0  07:01           0         3.7      -0.165
  WS02006245           JUNCTION      0.00   344.02     0  07:01           0        3.71       0.358
  WS02006247           JUNCTION      0.00   350.24     0  07:01           0        3.72       0.176
  WS02006248           JUNCTION      0.00   355.72     0  07:01           0        3.72       0.073
  WS02006249           JUNCTION      0.00   444.22     0  02:20           0        3.98       0.352
  WS02006239           JUNCTION      0.00   314.36     0  07:10           0        3.72       0.327
  WS02006251           JUNCTION      0.08   456.33     0  02:20     0.00217        4.02       0.208
  WS02006252           JUNCTION      0.00   400.00     0  04:30           0        3.66       0.012
  WS02006253           JUNCTION      1.44    57.88     0  02:08     0.00747       0.366       1.122
  WS02006256           JUNCTION      0.00   599.95     0  03:50           0        6.02       0.054
  WS02004138           JUNCTION      0.00   380.00     0  02:10           0         5.9       0.074
  WS02004407           JUNCTION      0.00   586.76     0  02:24           0        7.81       0.104
  WS02006228           JUNCTION      0.00   584.26     0  02:20           0        7.99       0.186
  WS02006229           JUNCTION      0.00   586.37     0  02:20           0           8       0.164
  WS02006280           JUNCTION      0.00   274.19     0  02:09           0        1.75       0.004
  WS02006284           JUNCTION      0.10   274.19     0  02:09      0.0027        1.75       0.059
  WS02006287           JUNCTION      0.00   274.08     0  02:09           0        1.75       0.041
  WSF200               JUNCTION      0.00   582.62     0  02:27           0        7.67       0.065
  HS02004901           JUNCTION     12.34    12.34     0  01:36      0.0695      0.0697       2.591
  HS02004881           JUNCTION      5.34    56.58     0  02:08      0.0303       0.326       0.081
  HS02004876           JUNCTION     10.11    51.23     0  02:08      0.0584       0.296       0.183
  HS02004870           JUNCTION     10.08    41.18     0  02:08      0.0575       0.238       0.045
  HS02004862           JUNCTION      9.99    31.21     0  02:08      0.0634        0.18       0.094
  HS02004856           JUNCTION      7.58    21.25     0  02:08      0.0432       0.118       1.232
  HS02004852           JUNCTION      0.00    13.78     0  02:09           0      0.0753       0.072
  HS02004848           JUNCTION     22.44    22.44     0  02:09       0.139       0.139       0.033
  HS02004842           JUNCTION      0.00     8.71     0  02:17           0      0.0763      20.532
  HS02004837           JUNCTION     23.78    32.32     0  02:08       0.279       0.343       0.238
  HS02004830           JUNCTION      0.15    32.46     0  02:09     0.00423       0.333       0.372
  HS02004824           JUNCTION     27.40    59.85     0  02:10       0.181       0.513       0.105
  HS02004817           JUNCTION      0.60    60.44     0  02:10      0.0169       0.529       3.252
  HS02004807           JUNCTION     18.56    78.63     0  02:09       0.106       0.618       0.705
  HS02004802           JUNCTION      0.00    78.69     0  02:10           0       0.615       0.645
  HS02004799           JUNCTION     14.98   164.66     0  02:07      0.0856       0.976       0.270
  HS02004792           JUNCTION     62.86   149.73     0  02:07       0.364       0.891       0.045
  HS02004788           JUNCTION     22.43    86.95     0  02:07       0.166       0.528       0.074
  HS02004785           JUNCTION      0.15    64.59     0  02:07     0.00423       0.363       0.135
  HS02004777           JUNCTION      0.03    64.48     0  02:07    0.000846       0.364       1.448
  HS02004770           JUNCTION     52.29    64.50     0  02:06       0.297       0.365       0.854
  HS02004480           JUNCTION      0.00   195.78     0  02:07           0        1.15       0.099
  HS02004479           JUNCTION      0.00    31.20     0  02:09           0       0.188       0.391
  HS02004478           JUNCTION      0.00   274.07     0  02:08           0        1.75       0.020
  YS02001745           JUNCTION    214.32   400.92     0  02:25        2.14        2.16       0.467
  YS02001748           JUNCTION      0.04   585.72     0  02:24     0.00127        2.15       1.041
  YS02001751           JUNCTION      0.01   318.86     0  02:15     0.00031        2.11       1.116
  YS02001754           JUNCTION      0.26   248.91     0  02:24     0.00733         2.1       1.183
  YS02001762           JUNCTION      0.00   255.68     0  02:28           0        1.85       1.140
  YS02001765           JUNCTION      0.00   254.20     0  02:40           0        1.86       1.317
  YS02001767           JUNCTION      0.54   254.08     0  02:40      0.0151        1.88       1.936
  YS02001770           JUNCTION    259.81   395.34     0  03:05        2.41        2.55       1.241
  YS02001774           JUNCTION      0.00   395.87     0  03:05           0       0.796       3.216
  YS02001779           JUNCTION      0.01   396.51     0  03:05    0.000141       0.765       2.056
  YS02001882           JUNCTION      0.00    14.25     0  02:13           0      0.0159      15.434
  YS02001884           JUNCTION      0.00    22.69     0  02:24           0      0.0526      12.451
  YS02001759           JUNCTION    246.73   496.62     0  02:40        2.23        3.92       0.580
  YS02001887           JUNCTION    301.84   307.40     0  02:35        2.57         2.6       0.316
  YS02001890           JUNCTION      0.00   302.88     0  02:43           0        2.56       0.348
  YS02001898           JUNCTION      0.00   303.11     0  02:45           0        2.54       0.110
  YS02001901           JUNCTION      0.00   301.02     0  02:50           0        2.54       0.259
  YS02001904           JUNCTION      0.00   301.10     0  02:50           0        2.54       0.237
  YS02001907           JUNCTION      0.00   587.55     0  03:03           0        5.62       0.414
  YS02001910           JUNCTION      0.00   321.42     0  03:06           0         3.1       0.366
  YS02001915           JUNCTION    186.98   320.11     0  03:06         1.8         3.1       0.182
  YS02001918           JUNCTION      0.00   139.28     0  03:06           0         1.3       0.135
  YS02001619           JUNCTION    183.42   183.42     0  02:55        1.79        1.79       0.677
  YS02001629           JUNCTION      0.00   192.39     0  02:13           0        1.66       1.727
  YS02001641           JUNCTION      0.00   386.66     0  02:29           0        3.69       0.567
  YS02001644           JUNCTION    204.56  1095.71     0  03:03        2.06        8.02       0.327
  YS02001652           JUNCTION      0.00   301.81     0  02:18           0        1.87       1.238
  YS02001655           JUNCTION      0.15   378.61     0  02:09     0.00434        1.89       1.342
  YS02001920           JUNCTION      2.87   128.22     0  03:06      0.0809        1.31       0.214
  YS02001923           JUNCTION      0.04   108.72     0  03:04     0.00106        1.23       0.048
  YS02001926           JUNCTION      0.05   103.49     0  03:01     0.00147        1.23       0.254
  YS02001929           JUNCTION    100.40   100.40     0  03:01        1.23        1.23       0.039
  YS02001658           JUNCTION      0.00   628.50     0  02:19           0        1.93       1.161
  YS02001661           JUNCTION      0.00   618.86     0  02:38           0        2.61      -0.132
  YS02001664           JUNCTION    219.77   376.26     0  02:38        1.91         2.6       0.205
  YS02001622           JUNCTION      0.00   183.92     0  02:54           0        1.78       1.811
  YS02001633           JUNCTION    208.70   377.70     0  02:29        2.13        3.74       0.858
  YS02001649           JUNCTION      0.00   777.78     0  02:28           0        5.17       0.717
  YS02001757           JUNCTION      0.00  1436.98     0  02:35           0        8.82       1.057
  YS02001895           JUNCTION      0.00   303.75     0  02:38           0        2.55       0.189
  YS02001625           JUNCTION      0.00   192.47     0  02:13           0        1.74       2.268
  YS02163301           JUNCTION      0.00   191.59     0  02:18           0        1.65       1.470
  YS02163601           JUNCTION      0.11   380.20     0  02:29      0.0031         3.7       0.813
  YS02164001           JUNCTION      0.00   382.42     0  02:29           0        3.68       0.534
  YS02001647           JUNCTION      0.00   574.35     0  02:29           0        4.25       0.662
  YSB1154              JUNCTION     18.00    18.00     0  02:07       0.104       0.105       1.400
  YSB6556              JUNCTION      0.00    17.99     0  02:06           0       0.105       1.199
  YSB1174              JUNCTION     13.79    13.79     0  01:35      0.0753      0.0758       1.722
  YSB1171              JUNCTION      0.00    31.24     0  02:07           0       0.187       3.509
  YS02006553           JUNCTION      0.00   587.19     0  03:03           0        5.62       0.272
  YS02006561           JUNCTION      0.00   841.69     0  02:57           0        7.92       0.009
  YS02006556           JUNCTION      0.00   587.34     0  03:03           0        5.62       0.196
  YS02006558           JUNCTION    265.84   842.29     0  02:57        2.36        7.95       0.064
  YS02001783           JUNCTION      0.00   841.08     0  02:58           0        7.92       0.027
  YS02001784           JUNCTION      1.06   842.28     0  02:58      0.0299        7.95       0.043
  YS02001786           JUNCTION      0.06   842.08     0  02:58     0.00159        7.95       0.040
  YS02001788           JUNCTION      0.07   842.08     0  02:58       0.002        7.94       0.024
  YS02001790           JUNCTION      0.15   842.37     0  02:58     0.00437        7.95       0.029
  YS02001791           JUNCTION      0.00   842.40     0  02:58           0        7.94       0.014
  YS02001793           JUNCTION      0.00   842.67     0  02:58           0        7.94       0.002
  WS02004139           JUNCTION      0.32   380.32     0  02:12     0.00905         5.9       0.568
  WSC                  OUTFALL       0.00   947.46     0  02:17           0          14       0.000
  3                    OUTFALL       0.00   522.07     0  02:20           0        3.65       0.000
  4                    OUTFALL       0.00   197.95     0  02:20           0       0.249       0.000
  5                    OUTFALL       0.00     0.00     0  00:00           0           0       0.000 ltr
  JK-storage           STORAGE       0.00   964.46     0  02:13           0        8.09      -5.100
  CC-storage           STORAGE       0.00  1437.05     0  02:35           0        7.33       0.841
  XR-storage           STORAGE     549.18   549.18     0  02:55        9.26        9.86      -0.001
  
  
  **********************
  Node Surcharge Summary
  **********************
  
  Surcharging occurs when water rises above the top of the highest conduit.
  ---------------------------------------------------------------------
                                               Max. Height   Min. Depth
                                   Hours       Above Crown    Below Rim
  Node                 Type      Surcharged         Meters       Meters
  ---------------------------------------------------------------------
  WS02006109           JUNCTION        2.07          0.201        1.619
  WS02006110           JUNCTION        0.41          0.046        1.804
  WS02006112           JUNCTION        0.59          0.184        1.496
  WS02006230           JUNCTION        0.01          0.010        1.560
  WS02006231           JUNCTION        0.10          0.064        1.466
  WS02006232           JUNCTION        1.76          0.215        1.265
  WS02006234           JUNCTION        0.17          0.156        1.084
  WS02006235           JUNCTION        0.75          0.176        1.114
  WS02006238           JUNCTION        1.09          0.189        1.241
  WS02006240           JUNCTION        0.12          0.099        1.291
  WS02006242           JUNCTION        0.71          0.134        0.686
  WS02006243           JUNCTION        0.01          0.059        0.711
  WS02006247           JUNCTION        0.01          0.653        0.107
  WS02006239           JUNCTION        0.15          0.134        1.156
  WS02006252           JUNCTION        1.61          0.192        0.908
  WS02006228           JUNCTION        1.93          0.253        1.947
  YS02001748           JUNCTION        5.31          1.190        0.000
  YS02001751           JUNCTION        5.57          1.200        0.000
  YS02001754           JUNCTION        5.76          1.083        0.067
  YS02001762           JUNCTION        5.96          1.032        0.118
  YS02001765           JUNCTION        5.94          0.981        0.119
  YS02001767           JUNCTION        5.92          0.933        0.097
  YS02001770           JUNCTION        5.91          0.885        0.035
  YS02001774           JUNCTION        5.95          0.987        0.063
  YS02001779           JUNCTION        5.75          0.680        0.000
  YS02001882           JUNCTION        0.46          0.181        0.649
  YS02001884           JUNCTION        0.53          0.224        0.646
  YS02001759           JUNCTION        5.98          1.069        0.141
  YS02001887           JUNCTION        0.69          0.312        0.638
  YS02001890           JUNCTION        0.74          0.338        0.422
  YS02001898           JUNCTION        0.35          0.114        0.626
  YS02001901           JUNCTION        0.63          0.272        0.598
  YS02001904           JUNCTION        0.59          0.243        0.607
  YS02001907           JUNCTION        1.45          0.574        0.376
  YS02001910           JUNCTION        0.80          0.368        0.732
  YS02001915           JUNCTION        0.43          0.157        0.843
  YS02001619           JUNCTION        5.55          0.610        0.000
  YS02001629           JUNCTION        5.57          0.470        0.000
  YS02001641           JUNCTION        5.95          0.956        0.144
  YS02001644           JUNCTION        5.95          0.920        0.000
  YS02001652           JUNCTION        5.79          1.130        0.000
  YS02001655           JUNCTION        5.58          1.200        0.000
  YS02001658           JUNCTION        5.34          1.300        0.000
  YS02001661           JUNCTION        0.22          1.390        0.000
  YS02001622           JUNCTION        5.60          0.620        0.000
  YS02001633           JUNCTION        5.93          0.973        0.087
  YS02001649           JUNCTION        5.96          1.050        0.000
  YS02001757           JUNCTION        6.04          1.177        0.033
  YS02001895           JUNCTION        0.39          0.139        0.611
  YS02001625           JUNCTION        5.88          0.780        0.000
  YS02163301           JUNCTION        5.92          0.914        0.116
  YS02163601           JUNCTION        5.97          1.032        0.048
  YS02164001           JUNCTION        5.94          0.959        0.141
  YS02001647           JUNCTION        5.84          0.801        0.099
  YS02006553           JUNCTION        1.51          0.578        0.612
  YS02006556           JUNCTION        1.07          0.487        0.863
  YS02006558           JUNCTION        1.02          0.468        0.932
  YS02001783           JUNCTION        1.17          0.430        1.170
  YS02001784           JUNCTION        1.24          0.406        1.084
  YS02001786           JUNCTION        1.17          0.376        1.054
  YS02001788           JUNCTION        1.16          0.491        0.989
  YS02001790           JUNCTION        2.43          0.524        0.633
  YS02001791           JUNCTION        2.69          0.458        1.462
  YS02001793           JUNCTION        2.91          1.326        1.274
  
  
  *********************
  Node Flooding Summary
  *********************
  
  Flooding refers to all water that overflows a node, whether it ponds or not.
  --------------------------------------------------------------------------
                                                             Total   Maximum
                                 Maximum   Time of Max       Flood    Ponded
                        Hours       Rate    Occurrence      Volume     Depth
  Node                 Flooded       LPS   days hr:min    10^6 ltr    Meters
  --------------------------------------------------------------------------
  YS02001748              0.01    180.44      0  02:25       0.000     0.000
  YS02001751              0.01      9.86      0  02:25       0.000     0.000
  YS02001779              2.62    396.38      0  03:05       0.745     0.000
  YS02001619              0.01     25.78      0  02:20       0.000     0.000
  YS02001629              0.01     29.30      0  02:22       0.000     0.000
  YS02001644              4.34   1095.42      0  03:03       6.022     0.000
  YS02001652              0.01     19.63      0  02:42       0.000     0.000
  YS02001655              0.01     94.66      0  02:18       0.000     0.000
  YS02001658              0.01    254.76      0  02:19       0.001     0.000
  YS02001661              0.01    159.27      0  02:42       0.000     0.000
  YS02001622              0.01     34.69      0  02:20       0.000     0.000
  YS02001649              0.07     43.77      0  02:42       0.003     0.000
  YS02001625              0.61     35.96      0  02:55       0.049     0.000
  JK-storage              1.93    840.37      0  03:00       2.516     0.000
  XR-storage              5.06    434.42      0  02:40       3.038     0.000
  
  
  **********************
  Storage Volume Summary
  **********************
  
  --------------------------------------------------------------------------------------------------
                         Average     Avg  Evap Exfil       Maximum     Max    Time of Max    Maximum
                          Volume    Pcnt  Pcnt  Pcnt        Volume    Pcnt     Occurrence    Outflow
  Storage Unit           1000 m3    Full  Loss  Loss       1000 m3    Full    days hr:min        LPS
  --------------------------------------------------------------------------------------------------
  JK-storage               0.156      53     0     0         0.291     100       0  02:20     599.95
  CC-storage               3.065      20     0     0         3.907      25       0  03:01     400.00
  XR-storage               0.892      96     0     0         0.926     100       0  02:06     380.00
  
  
  ***********************
  Outfall Loading Summary
  ***********************
  
  -----------------------------------------------------------
                         Flow       Avg       Max       Total
                         Freq      Flow      Flow      Volume
  Outfall Node           Pcnt       LPS       LPS    10^6 ltr
  -----------------------------------------------------------
  WSC                   99.99    552.03    947.46      14.031
  3                     87.00    197.20    522.07       3.646
  4                     25.29     45.64    197.95       0.249
  5                      0.00      0.00      0.00       0.000
  -----------------------------------------------------------
  System                53.07    794.87   1639.79      17.926
  
  
  ********************
  Link Flow Summary
  ********************
  
  -----------------------------------------------------------------------------
                                 Maximum  Time of Max   Maximum    Max/    Max/
                                  |Flow|   Occurrence   |Veloc|    Full    Full
  Link                 Type          LPS  days hr:min     m/sec    Flow   Depth
  -----------------------------------------------------------------------------
  WS02003066WSF200     CONDUIT    582.62     0  02:27      2.77    0.10    0.24
  WS02006287WS02006284 CONDUIT    274.09     0  02:09      1.78    0.13    0.25
  WS02006284WS02006280 CONDUIT    274.19     0  02:09      2.02    0.11    0.23
  WS02006280WS02006229 CONDUIT    274.19     0  02:09      3.26    0.06    0.16
  WS02006229WS02006228 CONDUIT    584.26     0  02:20      1.16    1.94    1.00
  WS02006256WS02006235 CONDUIT    166.25     0  00:01      2.58    1.76    1.00
  WS02006253WS02006251 CONDUIT     82.57     0  02:20      0.54    0.25    0.98
  WS02006252WS02006251 CONDUIT    400.39     0  07:00      3.19    1.47    1.00
  WS02006251WS02006249 CONDUIT    444.22     0  02:20      1.18    1.28    0.95
  WS02006249WS02006248 CONDUIT    355.72     0  07:01      1.16    1.95    0.91
  WS02006248WS02006247 CONDUIT    350.24     0  07:01      1.13    0.76    0.96
  WS02006247WS02006245 CONDUIT    344.02     0  07:01      1.09    2.73    0.99
  WS02006245WS02006243 CONDUIT    335.63     0  07:01      1.10    0.99    1.00
  WS02006243WS02006242 CONDUIT    326.34     0  07:01      0.96    0.70    1.00
  WS02006242WS02006240 CONDUIT    315.62     0  07:02      0.87    1.25    1.00
  WS02006240WS02006239 CONDUIT    314.36     0  07:10      0.86    0.99    1.00
  WS02006239WS02006238 CONDUIT    314.58     0  07:10      0.82    1.01    1.00
  WS02006238WS02006235 CONDUIT    314.64     0  07:10      1.25    0.70    1.00
  WS02006235WS02006234 CONDUIT    386.88     0  07:04      1.04    4.08    1.00
  WS02006234WS02006232 CONDUIT    386.07     0  04:32      1.13    0.78    1.00
  WS02006232WS02006231 CONDUIT    386.06     0  04:41      1.06    0.81    1.00
  WS02006231WS02006230 CONDUIT    386.08     0  04:41      1.36    5.86    1.00
  WS02006230WS02006229 CONDUIT    396.43     0  04:42      1.03    8.82    1.00
  WS02006228WS02006109 CONDUIT    584.27     0  02:20      1.16    2.55    1.00
  WS02006116WS02004401 CONDUIT    589.09     0  02:23      0.80    0.81    0.88
  WS02006115WS02006116 CONDUIT    591.61     0  02:23      0.88    0.76    0.80
  WS02006113WS02006111 CONDUIT    612.30     0  02:21      2.54    0.73    0.48
  WS02006112WS02006115 CONDUIT    609.92     0  02:22      0.83    0.36    0.89
  WS02006111WS02006112 CONDUIT    592.64     0  02:21      1.62    0.28    0.68
  WS02006110WS02006113 CONDUIT    585.93     0  02:20      1.36    0.53    0.80
  WS02006109WS02006110 CONDUIT    585.46     0  02:20      1.16    1.13    1.00
  WS02004411WS02004412 CONDUIT    582.77     0  02:27      0.96    0.83    0.72
  WS02004401WS02004402 CONDUIT    587.92     0  02:23      0.79    0.71    0.90
  WS02004413WS02003067 CONDUIT    582.57     0  02:27      1.16    0.25    0.61
  WS02004412WS02004413 CONDUIT    582.75     0  02:27      0.86    0.39    0.80
  WS02004410WS02004411 CONDUIT    583.15     0  02:25      0.97    0.80    0.71
  WS02004409WS02004410 CONDUIT    584.55     0  02:24      0.99    0.76    0.70
  WS02004407WS02004409 CONDUIT    586.53     0  02:24      1.48    0.21    0.50
  WS02004406WS02004407 CONDUIT    586.76     0  02:24      1.09    0.26    0.65
  WS02004405WS02004406 CONDUIT    586.81     0  02:24      0.75    1.16    0.98
  WS02004404WS02004405 CONDUIT    586.82     0  02:23      0.84    5.75    0.99
  WS02004403WS02004404 CONDUIT    586.79     0  02:23      0.76    0.42    0.96
  WS02004402WS02004403 CONDUIT    587.23     0  02:23      0.78    0.84    0.92
  WS02004139WS02001211 CONDUIT    380.72     0  02:20      0.81    0.48    0.60
  WS02004138WS02004139 CONDUIT    380.00     0  02:12      3.33    0.08    0.44
  WS02003067WS02003066 CONDUIT    582.61     0  02:27      1.26    0.19    0.43
  WS02001213WS02003059 CONDUIT    389.56     0  02:19      0.80    0.64    0.78
  WS02001212WS02001213 CONDUIT    388.99     0  02:20      1.30    0.60    0.47
  WS02001211WS02001212 CONDUIT    388.54     0  02:20      0.76    0.30    0.65
  WS02003072WS02003073 CONDUIT    945.48     0  02:16      1.73    2.04    0.49
  WS02003069WS02003072 CONDUIT    945.48     0  02:15      1.62    0.46    0.51
  WS02003060WS02003069 CONDUIT    945.26     0  02:15      1.87    0.37    0.46
  WS02003059WS02003060 CONDUIT    390.36     0  02:19      0.92    0.25    0.66
  HS02004901HS02004770 CONDUIT     12.22     0  02:07      0.05    0.05    0.35
  HS02004876HS02004881 CONDUIT     51.29     0  02:09      0.76    0.55    0.10
  HS02004870HS02004876 CONDUIT     41.17     0  02:09      0.52    0.03    0.11
  HS02004842HS02004848 CONDUIT      8.71     0  02:17      0.04    0.01    0.29
  HS02004837HS02004842 CONDUIT      8.85     0  02:14      0.41    0.01    0.30
  HS02004830HS02004837 CONDUIT     32.31     0  02:09      0.50    0.03    0.09
  HS02004824HS02004830 CONDUIT     32.45     0  02:09      0.53    0.04    0.09
  HS02004817HS02004824 CONDUIT     59.84     0  02:10      0.20    0.03    0.43
  HS02004770HS02004777 CONDUIT     64.45     0  02:07      0.26    0.12    0.36
  HS02004799HS02004480 CONDUIT    164.63     0  02:07      0.67    0.21    0.35
  HS02004792HS02004799 CONDUIT    149.69     0  02:07      0.76    0.09    0.28
  HS02004788HS02004792 CONDUIT     86.94     0  02:08      0.90    0.06    0.14
  HS02004785HS02004788 CONDUIT     64.57     0  02:08      0.57    0.49    0.16
  HS02004777HS02004785 CONDUIT     64.44     0  02:07      0.31    0.08    0.29
  HS02004480HS02004478 CONDUIT    195.75     0  02:08      1.06    0.82    0.26
  HS02004479HS02004480 CONDUIT     31.31     0  02:10      0.28    0.03    0.34
  HS02004862HS02004870 CONDUIT     31.19     0  02:09      0.56    0.03    0.08
  HS02004848HS02004852 CONDUIT     13.78     0  02:09      0.38    0.02    0.05
  HS02004856HS02004862 CONDUIT     21.24     0  02:09      0.41    0.02    0.07
  HS02004852HS02004856 CONDUIT     13.76     0  02:09      0.18    0.02    0.11
  HS02004802HS02004478 CONDUIT     78.88     0  02:11      0.38    0.07    0.29
  HS02004478WS02006287 CONDUIT    274.08     0  02:09      1.48    0.08    0.21
  HS02004817HS02004807 CONDUIT     60.62     0  02:11      0.15    0.04    0.56
  HS02004807HS02004802 CONDUIT     78.69     0  02:10      0.32    0.15    0.35
  YS02001759YS02001757 CONDUIT    496.99     0  02:40      0.63    0.35    1.00
  YS02001762YS02001759 CONDUIT    257.31     0  02:28      0.33    0.30    1.00
  YS02001765YS02001762 CONDUIT    255.68     0  02:28      0.33    0.24    1.00
  YS02001770YS02001767 CONDUIT    253.55     0  02:40      0.38    1.00    1.00
  YS02001774YS02001770 CONDUIT    395.87     0  03:05      0.50    0.25    1.00
  YS02001779YS02001774 CONDUIT    396.50     0  03:05      0.50    0.20    1.00
  YS02001649YS02001757 CONDUIT    778.48     0  02:28      0.99    0.47    1.00
  YS02001767YS02001765 CONDUIT    254.20     0  02:40      0.35    0.32    1.00
  YS02006561YS02001783 CONDUIT    841.08     0  02:58      2.12    0.44    1.00
  YS02001783YS02001784 CONDUIT    841.22     0  02:58      1.67    1.16    1.00
  YS02001784YS02001785 CONDUIT    842.03     0  02:58      1.74    1.96    1.00
  YS02001788YS02001790 CONDUIT    842.22     0  02:58      2.28    0.62    1.00
  YS02001790YS02001791 CONDUIT    842.40     0  02:58      2.75    0.92    1.00
  YS02001791YS02001793 CONDUIT    842.67     0  02:58      5.51    0.36    1.00
  YS02001910YS02001907 CONDUIT    321.41     0  03:06      0.49    0.18    1.00
  YS02001786YS02001788 CONDUIT    842.01     0  02:58      2.19    1.62    1.00
  YS02001915YS02001910 CONDUIT    321.42     0  03:06      0.56    0.16    1.00
  YS02001918YS02001915 CONDUIT    149.56     0  03:06      0.44    0.08    0.90
  YS02001923YS02001920 CONDUIT    125.35     0  03:06      0.66    0.06    0.74
  YS02001926YS02001923 CONDUIT    108.68     0  03:04      0.76    0.16    0.42
  YS02001929YS02001926 CONDUIT    103.43     0  03:01      0.81    0.05    0.30
  YS02001920YS02001918 CONDUIT    139.28     0  03:06      0.65    0.13    0.84
  YS02001629YS02163301 CONDUIT    191.59     0  02:18      0.24    0.24    1.00
  YS02001619YS02001622 CONDUIT    183.92     0  02:54      0.67    0.27    1.00
  YS02001622YS02001625 CONDUIT    192.47     0  02:13      0.32    0.10    1.00
  YS02001625YS02001629 CONDUIT    192.39     0  02:13      0.27    0.09    1.00
  YS02163301YS02001633 CONDUIT    191.47     0  02:18      0.24    0.18    1.00
  YS02163601YS02164001 CONDUIT    382.42     0  02:29      0.49    0.34    1.00
  YS02164001YS02001641 CONDUIT    386.66     0  02:29      0.49    0.53    1.00
  YS02001641YS02001644 CONDUIT    388.62     0  02:29      0.49    1.26    1.00
  YS02001647YS02001649 CONDUIT    575.60     0  02:29      0.73    0.30    1.00
  YS02006553YS02006556 CONDUIT    587.34     0  03:03      0.75    0.50    1.00
  YS02006556YS02006558 CONDUIT    587.66     0  03:03      0.75    0.46    1.00
  YSB6556YSB1171       CONDUIT     18.03     0  02:09      0.07    0.02    0.61
  YS02001907YS02006553 CONDUIT    587.19     0  03:03      0.65    0.69    1.00
  YS02006558YS02006561 CONDUIT    841.69     0  02:57      3.28    1.86    1.00
  YS02001633YS02163601 CONDUIT    380.09     0  02:29      0.48    0.40    1.00
  YS02001644YS02001647 CONDUIT    574.35     0  02:29      0.73    0.34    1.00
  YS02001745YS02001748 CONDUIT    585.67     0  02:24      1.53    0.23    0.95
  YS02001748YS02001751 CONDUIT    318.84     0  02:15      1.14    0.16    1.00
  YS02001751YS02001754 CONDUIT    248.65     0  02:24      0.97    0.12    1.00
  YS02001754YS02001757 CONDUIT    248.65     0  02:24      0.33    0.10    1.00
  YS02001882YS02001884 CONDUIT     14.25     0  02:13      0.12    0.02    1.00
  YS02001884YS02001887 CONDUIT     22.69     0  02:24      0.09    0.03    1.00
  YS02001890YS02001895 CONDUIT    303.75     0  02:38      0.45    0.14    1.00
  YS02001895YS02001898 CONDUIT    303.11     0  02:45      0.58    0.53    1.00
  YS02001898YS02001901 CONDUIT    301.02     0  02:50      0.51    0.19    1.00
  YS02001901YS02001904 CONDUIT    301.10     0  02:50      0.46    0.47    1.00
  YS02001904YS02001907 CONDUIT    301.17     0  02:50      0.40    0.11    1.00
  YS02001887YS02001890 CONDUIT    302.88     0  02:43      0.41    0.52    1.00
  YS02001652YS02001649 CONDUIT    301.64     0  02:18      0.58    0.15    1.00
  YS02001655YS02001652 CONDUIT    301.81     0  02:18      1.05    0.15    1.00
  YS02001658YS02001655 CONDUIT    378.45     0  02:09      1.31    0.16    1.00
  YS02001661YS02001658 CONDUIT    628.50     0  02:19      1.61    0.25    1.00
  YS02001664YS02001661 CONDUIT    618.86     0  02:38      1.51    0.19    0.73
  YSB1154YSB6556       CONDUIT     17.99     0  02:06      0.16    0.03    0.50
  YSB1174YSB1171       CONDUIT     13.75     0  01:36      0.06    0.02    0.62
  YSB1171HS02004479    CONDUIT     31.20     0  02:09      0.54    0.02    0.48
  HS02004881HS02006253 CONDUIT     56.58     0  02:08      1.92    0.01    0.29
  YS02001793JiankangQianchi CONDUIT    964.46     0  02:13     13.02    0.08    1.00
  YS02001757CaochengTiaoxuchi CONDUIT   1437.05     0  02:35      2.15    0.63    1.00
  WSF200WS02003060     CONDUIT    582.17     0  02:28      1.77    0.13    0.35
  1                    CONDUIT    947.46     0  02:17      3.28    0.33    0.40
  2                    CONDUIT    197.95     0  02:20      5.83    0.47    0.49
  3                    CONDUIT    522.07     0  02:20      9.87    0.83    0.70
  4                    CONDUIT      0.00     0  00:00      0.00    0.00    0.00
  CC-Pump-1            PUMP       200.00     0  03:40              1.00
  CC-Pump-2            PUMP       200.00     0  03:20              1.00
  JK-Pump-1            PUMP       300.00     0  00:00              1.00
  JK-Pump-2            PUMP       300.00     0  01:47              1.00
  XR-Pump-1            PUMP        95.00     0  00:30              1.00
  XR-Pump-2            PUMP        95.00     0  00:00              1.00
  XR-Pump-3            PUMP        95.00     0  00:00              1.00
  XR-Pump-4            PUMP        95.00     0  00:00              1.00
  
  
  ***************************
  Flow Classification Summary
  ***************************
  
  -------------------------------------------------------------------------------------
                      Adjusted    ---------- Fraction of Time in Flow Class ---------- 
                       /Actual         Up    Down  Sub   Sup   Up    Down  Norm  Inlet 
  Conduit               Length    Dry  Dry   Dry   Crit  Crit  Crit  Crit  Ltd   Ctrl  
  -------------------------------------------------------------------------------------
  WS02003066WSF200        1.00   0.04  0.02  0.00  0.00  0.94  0.00  0.00  0.69  0.00
  WS02006287WS02006284    1.00   0.04  0.01  0.00  0.59  0.36  0.00  0.00  0.68  0.00
  WS02006284WS02006280    1.00   0.04  0.00  0.00  0.00  0.00  0.00  0.96  0.00  0.00
  WS02006280WS02006229    1.00   0.04  0.00  0.00  0.00  0.00  0.00  0.96  0.00  0.00
  WS02006229WS02006228    1.00   0.00  0.00  0.00  0.99  0.00  0.00  0.01  0.00  0.00
  WS02006256WS02006235    1.00   0.00  0.00  0.00  1.00  0.00  0.00  0.00  0.00  0.00
  WS02006253WS02006251    1.00   0.03  0.01  0.00  0.96  0.00  0.00  0.00  0.00  0.00
  WS02006252WS02006251    1.00   0.06  0.00  0.00  0.00  0.00  0.93  0.00  0.00  0.00
  WS02006251WS02006249    1.00   0.00  0.00  0.00  1.00  0.00  0.00  0.00  0.26  0.00
  WS02006249WS02006248    1.00   0.00  0.02  0.00  0.84  0.00  0.14  0.00  0.00  0.00
  WS02006248WS02006247    1.00   0.02  0.00  0.00  0.97  0.00  0.00  0.00  0.18  0.00
  WS02006247WS02006245    1.00   0.02  0.00  0.00  0.98  0.00  0.00  0.00  0.00  0.00
  WS02006245WS02006243    1.00   0.01  0.00  0.00  0.96  0.00  0.00  0.03  0.02  0.00
  WS02006243WS02006242    1.00   0.01  0.00  0.00  0.99  0.00  0.00  0.00  0.17  0.00
  WS02006242WS02006240    1.00   0.00  0.00  0.00  0.99  0.00  0.00  0.00  0.00  0.00
  WS02006240WS02006239    1.00   0.00  0.00  0.00  0.97  0.00  0.00  0.03  0.01  0.00
  WS02006239WS02006238    1.00   0.00  0.00  0.00  1.00  0.00  0.00  0.00  0.01  0.00
  WS02006238WS02006235    1.00   0.00  0.00  0.00  1.00  0.00  0.00  0.00  0.00  0.00
  WS02006235WS02006234    1.00   0.00  0.00  0.00  0.97  0.00  0.03  0.00  0.00  0.00
  WS02006234WS02006232    1.00   0.00  0.00  0.00  1.00  0.00  0.00  0.00  0.00  0.00
  WS02006232WS02006231    1.00   0.00  0.00  0.00  0.99  0.00  0.00  0.00  0.00  0.00
  WS02006231WS02006230    1.00   0.00  0.00  0.00  0.63  0.00  0.37  0.00  0.00  0.00
  WS02006230WS02006229    1.00   0.00  0.00  0.00  0.99  0.00  0.00  0.01  0.00  0.00
  WS02006228WS02006109    1.00   0.00  0.00  0.00  1.00  0.00  0.00  0.00  0.00  0.00
  WS02006116WS02004401    1.00   0.02  0.00  0.00  0.98  0.00  0.00  0.00  0.00  0.00
  WS02006115WS02006116    1.00   0.02  0.00  0.00  0.97  0.00  0.00  0.01  0.00  0.00
  WS02006113WS02006111    1.00   0.02  0.00  0.00  0.00  0.98  0.00  0.00  0.14  0.00
  WS02006112WS02006115    1.00   0.02  0.00  0.00  0.97  0.00  0.00  0.00  0.00  0.00
  WS02006111WS02006112    1.00   0.02  0.00  0.00  0.98  0.00  0.00  0.00  0.98  0.00
  WS02006110WS02006113    1.00   0.01  0.01  0.00  0.98  0.00  0.00  0.00  0.00  0.00
  WS02006109WS02006110    1.00   0.00  0.01  0.00  0.98  0.00  0.01  0.00  0.00  0.00
  WS02004411WS02004412    1.00   0.04  0.00  0.00  0.96  0.00  0.00  0.00  0.00  0.00
  WS02004401WS02004402    1.00   0.02  0.00  0.00  0.98  0.00  0.00  0.00  0.00  0.00
  WS02004413WS02003067    1.00   0.04  0.01  0.00  0.00  0.00  0.95  0.00  0.00  0.00
  WS02004412WS02004413    1.00   0.04  0.00  0.00  0.96  0.00  0.00  0.00  0.03  0.00
  WS02004410WS02004411    1.00   0.04  0.00  0.00  0.96  0.00  0.00  0.00  0.03  0.00
  WS02004409WS02004410    1.00   0.04  0.00  0.00  0.96  0.00  0.00  0.00  0.02  0.00
  WS02004407WS02004409    1.00   0.04  0.00  0.00  0.96  0.00  0.00  0.00  0.89  0.00
  WS02004406WS02004407    1.00   0.00  0.04  0.00  0.96  0.00  0.00  0.00  0.00  0.00
  WS02004405WS02004406    1.00   0.00  0.00  0.00  1.00  0.00  0.00  0.00  0.01  0.00
  WS02004404WS02004405    1.00   0.00  0.00  0.00  1.00  0.00  0.00  0.00  0.00  0.00
  WS02004403WS02004404    1.00   0.00  0.03  0.00  0.97  0.00  0.00  0.00  0.01  0.00
  WS02004402WS02004403    1.00   0.03  0.00  0.00  0.97  0.00  0.00  0.00  0.00  0.00
  WS02004139WS02001211    1.00   0.00  0.00  0.00  1.00  0.00  0.00  0.00  0.00  0.00
  WS02004138WS02004139    1.00   0.00  0.00  0.00  0.99  0.01  0.00  0.00  1.00  0.00
  WS02003067WS02003066    1.00   0.05  0.01  0.00  0.94  0.00  0.00  0.00  0.00  0.00
  WS02001213WS02003059    1.00   0.00  0.00  0.00  0.99  0.00  0.00  0.00  0.00  0.00
  WS02001212WS02001213    1.00   0.00  0.00  0.00  0.82  0.00  0.18  0.00  0.00  0.00
  WS02001211WS02001212    1.00   0.00  0.00  0.00  1.00  0.00  0.00  0.00  0.00  0.00
  WS02003072WS02003073    1.00   0.00  0.00  0.00  0.00  0.00  0.00  1.00  0.00  0.00
  WS02003069WS02003072    1.00   0.00  0.00  0.00  0.99  0.01  0.00  0.00  0.21  0.00
  WS02003060WS02003069    1.00   0.00  0.00  0.00  0.98  0.02  0.00  0.00  0.15  0.00
  WS02003059WS02003060    1.00   0.00  0.00  0.00  1.00  0.00  0.00  0.00  0.01  0.00
  HS02004901HS02004770    1.00   0.04  0.00  0.00  0.96  0.00  0.00  0.00  0.00  0.00
  HS02004876HS02004881    1.00   0.02  0.00  0.00  0.98  0.00  0.00  0.00  0.00  0.00
  HS02004870HS02004876    1.00   0.00  0.00  0.00  0.99  0.00  0.00  0.00  0.95  0.00
  HS02004842HS02004848    1.00   0.00  0.04  0.00  0.96  0.00  0.00  0.00  0.58  0.00
  HS02004837HS02004842    1.00   0.00  0.00  0.00  0.99  0.01  0.00  0.00  0.11  0.00
  HS02004830HS02004837    1.00   0.00  0.00  0.00  1.00  0.00  0.00  0.00  0.99  0.00
  HS02004824HS02004830    1.00   0.00  0.00  0.00  1.00  0.00  0.00  0.00  0.00  0.00
  HS02004817HS02004824    1.00   0.00  0.00  0.00  1.00  0.00  0.00  0.00  1.00  0.00
  HS02004770HS02004777    1.00   0.00  0.04  0.00  0.96  0.00  0.00  0.00  0.03  0.00
  HS02004799HS02004480    1.00   0.00  0.02  0.00  0.95  0.00  0.02  0.00  0.00  0.00
  HS02004792HS02004799    1.00   0.00  0.00  0.00  0.99  0.01  0.00  0.00  0.98  0.00
  HS02004788HS02004792    1.00   0.00  0.00  0.00  0.99  0.01  0.00  0.00  0.98  0.00
  HS02004785HS02004788    1.00   0.00  0.00  0.00  1.00  0.00  0.00  0.00  0.00  0.00
  HS02004777HS02004785    1.00   0.00  0.00  0.00  1.00  0.00  0.00  0.00  0.12  0.00
  HS02004480HS02004478    1.00   0.04  0.00  0.00  0.66  0.00  0.00  0.30  0.00  0.00
  HS02004479HS02004480    1.00   0.03  0.00  0.00  0.97  0.00  0.00  0.00  0.12  0.00
  HS02004862HS02004870    1.00   0.00  0.00  0.00  1.00  0.00  0.00  0.00  0.04  0.00
  HS02004848HS02004852    1.00   0.04  0.00  0.00  0.96  0.00  0.00  0.00  0.76  0.00
  HS02004856HS02004862    1.00   0.00  0.05  0.00  0.95  0.00  0.00  0.00  0.83  0.00
  HS02004852HS02004856    1.00   0.04  0.00  0.00  0.96  0.00  0.00  0.00  0.86  0.00
  HS02004802HS02004478    1.00   0.04  0.00  0.00  0.96  0.00  0.00  0.00  0.03  0.00
  HS02004478WS02006287    1.00   0.05  0.00  0.00  0.73  0.22  0.00  0.00  0.65  0.00
  HS02004817HS02004807    1.00   0.00  0.04  0.00  0.96  0.00  0.00  0.00  0.01  0.00
  HS02004807HS02004802    1.00   0.04  0.00  0.00  0.95  0.00  0.00  0.00  0.00  0.00
  YS02001759YS02001757    1.00   0.00  0.00  0.00  1.00  0.00  0.00  0.00  0.16  0.00
  YS02001762YS02001759    1.00   0.00  0.00  0.00  1.00  0.00  0.00  0.00  0.03  0.00
  YS02001765YS02001762    1.00   0.00  0.00  0.00  1.00  0.00  0.00  0.00  0.14  0.00
  YS02001770YS02001767    1.00   0.00  0.00  0.00  1.00  0.00  0.00  0.00  0.00  0.00
  YS02001774YS02001770    1.00   0.00  0.04  0.00  0.96  0.00  0.00  0.00  0.03  0.00
  YS02001779YS02001774    1.00   0.00  0.00  0.00  1.00  0.00  0.00  0.00  0.18  0.00
  YS02001649YS02001757    1.00   0.00  0.00  0.00  1.00  0.00  0.00  0.00  0.16  0.00
  YS02001767YS02001765    1.00   0.00  0.00  0.00  1.00  0.00  0.00  0.00  0.00  0.00
  YS02006561YS02001783    1.00   0.05  0.00  0.00  0.40  0.55  0.00  0.00  0.57  0.00
  YS02001783YS02001784    1.00   0.00  0.05  0.00  0.95  0.00  0.00  0.00  0.00  0.00
  YS02001784YS02001785    1.00   0.00  0.00  0.00  1.00  0.00  0.00  0.00  0.17  0.00
  YS02001788YS02001790    1.00   0.00  0.00  0.00  0.52  0.48  0.00  0.00  0.52  0.00
  YS02001790YS02001791    1.00   0.00  0.00  0.00  0.49  0.51  0.00  0.00  0.41  0.00
  YS02001791YS02001793    1.00   0.00  0.00  0.00  0.50  0.50  0.00  0.00  0.01  0.00
  YS02001910YS02001907    1.00   0.00  0.00  0.00  0.97  0.00  0.00  0.02  0.12  0.00
  YS02001786YS02001788    1.00   0.00  0.00  0.00  0.49  0.51  0.00  0.00  0.00  0.00
  YS02001915YS02001910    1.00   0.00  0.00  0.00  0.99  0.01  0.00  0.00  0.16  0.00
  YS02001918YS02001915    1.00   0.00  0.01  0.00  0.98  0.01  0.00  0.00  0.59  0.00
  YS02001923YS02001920    1.00   0.00  0.00  0.00  1.00  0.00  0.00  0.00  0.87  0.00
  YS02001926YS02001923    1.00   0.00  0.03  0.00  0.08  0.00  0.88  0.00  0.00  0.00
  YS02001929YS02001926    1.00   0.00  0.04  0.00  0.96  0.00  0.00  0.00  0.85  0.00
  YS02001920YS02001918    1.00   0.00  0.01  0.00  0.99  0.00  0.00  0.00  0.00  0.00
  YS02001629YS02163301    1.00   0.05  0.00  0.00  0.95  0.00  0.00  0.00  0.00  0.00
  YS02001619YS02001622    1.00   0.04  0.00  0.00  0.96  0.00  0.00  0.00  0.00  0.00
  YS02001622YS02001625    1.00   0.04  0.00  0.00  0.96  0.00  0.00  0.00  0.04  0.00
  YS02001625YS02001629    1.00   0.04  0.01  0.00  0.93  0.00  0.01  0.00  0.00  0.00
  YS02163301YS02001633    1.00   0.00  0.05  0.00  0.95  0.00  0.00  0.00  0.00  0.00
  YS02163601YS02164001    1.00   0.00  0.03  0.00  0.97  0.00  0.00  0.00  0.00  0.00
  YS02164001YS02001641    1.00   0.01  0.03  0.00  0.97  0.00  0.00  0.00  0.06  0.00
  YS02001641YS02001644    1.00   0.00  0.01  0.00  0.99  0.00  0.00  0.00  0.00  0.00
  YS02001647YS02001649    1.00   0.00  0.05  0.00  0.95  0.00  0.00  0.00  0.01  0.00
  YS02006553YS02006556    1.00   0.01  0.00  0.00  0.99  0.00  0.00  0.00  0.03  0.00
  YS02006556YS02006558    1.00   0.00  0.00  0.00  1.00  0.00  0.00  0.00  0.00  0.00
  YSB6556YSB1171          1.00   0.03  0.01  0.00  0.96  0.00  0.00  0.00  0.00  0.00
  YS02001907YS02006553    1.00   0.00  0.02  0.00  0.98  0.00  0.00  0.00  0.00  0.00
  YS02006558YS02006561    1.00   0.05  0.00  0.00  0.13  0.82  0.00  0.00  0.51  0.00
  YS02001633YS02163601    1.00   0.00  0.01  0.00  0.99  0.00  0.00  0.00  0.15  0.00
  YS02001644YS02001647    1.00   0.00  0.05  0.00  0.95  0.00  0.00  0.00  0.00  0.00
  YS02001745YS02001748    1.00   0.00  0.00  0.00  0.91  0.01  0.00  0.09  0.04  0.00
  YS02001748YS02001751    1.00   0.00  0.00  0.00  0.98  0.02  0.00  0.00  0.14  0.00
  YS02001751YS02001754    1.00   0.00  0.00  0.00  0.94  0.00  0.00  0.05  0.02  0.00
  YS02001754YS02001757    1.00   0.00  0.00  0.00  0.99  0.01  0.00  0.00  0.18  0.00
  YS02001882YS02001884    1.00   0.05  0.00  0.00  0.95  0.00  0.00  0.00  0.00  0.00
  YS02001884YS02001887    1.00   0.03  0.01  0.00  0.96  0.00  0.00  0.00  0.00  0.00
  YS02001890YS02001895    1.00   0.00  0.04  0.00  0.95  0.00  0.00  0.00  0.00  0.00
  YS02001895YS02001898    1.00   0.05  0.00  0.00  0.95  0.00  0.01  0.00  0.00  0.00
  YS02001898YS02001901    1.00   0.05  0.00  0.00  0.95  0.00  0.00  0.00  0.01  0.00
  YS02001901YS02001904    1.00   0.05  0.00  0.00  0.95  0.00  0.00  0.00  0.00  0.00
  YS02001904YS02001907    1.00   0.00  0.05  0.00  0.95  0.00  0.00  0.00  0.00  0.00
  YS02001887YS02001890    1.00   0.00  0.00  0.00  0.97  0.00  0.02  0.00  0.00  0.00
  YS02001652YS02001649    1.00   0.00  0.00  0.00  1.00  0.00  0.00  0.00  0.16  0.00
  YS02001655YS02001652    1.00   0.00  0.00  0.00  0.94  0.00  0.00  0.05  0.02  0.00
  YS02001658YS02001655    1.00   0.00  0.04  0.00  0.93  0.02  0.00  0.00  0.03  0.00
  YS02001661YS02001658    1.00   0.04  0.00  0.00  0.91  0.05  0.00  0.00  0.03  0.00
  YS02001664YS02001661    1.00   0.04  0.00  0.00  0.88  0.08  0.00  0.00  0.19  0.00
  YSB1154YSB6556          1.00   0.04  0.00  0.00  0.96  0.00  0.00  0.00  0.02  0.00
  YSB1174YSB1171          1.00   0.03  0.01  0.00  0.96  0.00  0.00  0.00  0.00  0.00
  YSB1171HS02004479       1.00   0.03  0.00  0.00  0.97  0.00  0.00  0.00  0.10  0.00
  HS02004881HS02006253    1.00   0.03  0.00  0.00  0.59  0.04  0.00  0.35  0.48  0.00
  YS02001793JiankangQianchi    1.00   0.00  0.00  0.00  0.63  0.36  0.00  0.00  0.16  0.00
  YS02001757CaochengTiaoxuchi    1.00   0.00  0.06  0.00  0.94  0.00  0.00  0.00  0.00  0.00
  WSF200WS02003060        1.00   0.00  0.04  0.00  0.58  0.38  0.00  0.00  0.29  0.00
  1                       1.00   0.00  0.00  0.00  0.00  1.00  0.00  0.00  0.38  0.00
  2                       1.00   0.74  0.00  0.00  0.00  0.25  0.00  0.00  0.06  0.00
  3                       1.00   0.13  0.00  0.00  0.00  0.87  0.00  0.00  0.27  0.00
  4                       1.00   1.00  0.00  0.00  0.00  0.00  0.00  0.00  0.00  0.00
  
  
  *************************
  Conduit Surcharge Summary
  *************************
  
  ----------------------------------------------------------------------------
                                                           Hours        Hours 
                         --------- Hours Full --------   Above Full   Capacity
  Conduit                Both Ends  Upstream  Dnstream   Normal Flow   Limited
  ----------------------------------------------------------------------------
  WS02006229WS02006228        1.93      2.21      1.93      4.35         1.93
  WS02006256WS02006235        6.36      6.36      7.69      4.15         0.01
  WS02006253WS02006251        0.01      0.01      0.01      0.01         0.01
  WS02006252WS02006251        0.79      0.79      1.61      1.40         0.01
  WS02006251WS02006249        0.01      0.01      0.01      0.80         0.01
  WS02006249WS02006248        0.01      0.01      0.01      3.29         0.01
  WS02006248WS02006247        0.01      0.01      0.01      0.01         0.01
  WS02006247WS02006245        0.01      0.02      0.01      3.86         0.01
  WS02006245WS02006243        0.01      0.01      0.01      0.01         0.01
  WS02006243WS02006242        0.03      0.03      0.70      0.01         0.01
  WS02006242WS02006240        0.12      0.12      1.03      1.48         0.01
  WS02006240WS02006239        0.13      0.13      0.15      0.01         0.01
  WS02006239WS02006238        0.91      0.91      1.09      0.05         0.06
  WS02006238WS02006235        0.97      0.97      1.50      0.01         0.01
  WS02006235WS02006234        0.17      0.17      0.75      6.37         0.01
  WS02006234WS02006232        0.19      0.19      1.76      0.01         0.01
  WS02006232WS02006231        0.10      0.10      1.76      0.01         0.01
  WS02006231WS02006230        0.01      0.01      0.13      6.37         0.01
  WS02006230WS02006229        3.36      3.80      3.36      6.46         3.36
  WS02006228WS02006109        2.06      2.89      2.06      5.09         2.06
  WS02006112WS02006115        0.01      0.01      0.59      0.01         0.01
  WS02006111WS02006112        0.01      0.01      4.49      0.01         0.01
  WS02006110WS02006113        0.01      0.01      2.54      0.01         0.01
  WS02006109WS02006110        0.41      0.41      2.90      0.41         0.01
  WS02004405WS02004406        0.01      0.01      0.01      0.55         0.01
  WS02004404WS02004405        0.01      0.01      0.01      6.25         0.01
  WS02003072WS02003073        0.01      0.01      0.01      4.84         0.01
  YS02001759YS02001757        5.98      5.98      6.04      0.01         0.01
  YS02001762YS02001759        5.96      5.96      5.98      0.01         0.01
  YS02001765YS02001762        5.94      5.94      5.96      0.01         0.01
  YS02001770YS02001767        5.92      5.93      5.92      0.01         0.78
  YS02001774YS02001770        5.91      5.91      5.95      0.01         0.01
  YS02001779YS02001774        5.75      5.75      5.95      0.01         0.01
  YS02001649YS02001757        5.96      5.96      6.04      0.01         0.01
  YS02001767YS02001765        5.92      5.92      5.94      0.01         0.01
  YS02006561YS02001783        0.01      0.01      1.17      0.01         0.01
  YS02001783YS02001784        1.17      1.17      1.24      0.87         0.81
  YS02001784YS02001785        1.17      1.24      1.17      2.02         1.17
  YS02001788YS02001790        1.16      1.16      2.43      0.01         0.01
  YS02001790YS02001791        2.43      2.43      2.69      0.01         0.01
  YS02001791YS02001793        2.69      2.69      2.97      0.01         0.01
  YS02001910YS02001907        0.80      0.80      1.45      0.01         0.01
  YS02001786YS02001788        1.16      1.17      1.16      1.65         1.16
  YS02001915YS02001910        0.43      0.43      0.80      0.01         0.01
  YS02001918YS02001915        0.01      0.01      0.43      0.01         0.01
  YS02001629YS02163301        5.91      5.91      5.92      0.01         0.01
  YS02001619YS02001622        5.55      5.55      5.60      0.01         0.01
  YS02001622YS02001625        5.60      5.60      5.88      0.01         0.01
  YS02001625YS02001629        5.57      5.57      5.88      0.01         0.01
  YS02163301YS02001633        5.92      5.92      5.95      0.01         0.01
  YS02163601YS02164001        5.94      5.94      5.97      0.01         0.01
  YS02164001YS02001641        5.94      5.94      5.95      0.01         0.03
  YS02001641YS02001644        5.95      5.95      5.95      1.03         1.27
  YS02001647YS02001649        5.84      5.84      5.96      0.01         0.01
  YS02006553YS02006556        1.07      1.07      1.51      0.01         0.01
  YS02006556YS02006558        1.29      1.29      1.58      0.01         0.01
  YS02001907YS02006553        2.04      2.04      2.24      0.01         0.01
  YS02006558YS02006561        0.63      1.02      0.63      1.89         0.63
  YS02001633YS02163601        5.93      5.93      5.97      0.01         0.01
  YS02001644YS02001647        5.84      5.84      5.95      0.01         0.01
  YS02001745YS02001748        0.01      0.01      5.31      0.01         0.01
  YS02001748YS02001751        5.38      5.38      5.57      0.01         0.01
  YS02001751YS02001754        5.57      5.57      5.76      0.01         0.01
  YS02001754YS02001757        5.81      5.81      6.04      0.01         0.01
  YS02001882YS02001884        0.46      0.46      0.53      0.01         0.01
  YS02001884YS02001887        0.64      0.64      0.69      0.01         0.01
  YS02001890YS02001895        0.39      0.39      0.83      0.01         0.01
  YS02001895YS02001898        0.35      0.35      0.39      0.01         0.01
  YS02001898YS02001901        0.41      0.41      0.63      0.01         0.01
  YS02001901YS02001904        0.59      0.59      0.63      0.01         0.01
  YS02001904YS02001907        0.59      0.59      1.55      0.01         0.01
  YS02001887YS02001890        0.74      0.74      0.78      0.01         0.01
  YS02001652YS02001649        5.86      5.86      5.96      0.01         0.01
  YS02001655YS02001652        5.58      5.58      5.79      0.01         0.01
  YS02001658YS02001655        5.34      5.34      5.58      0.01         0.01
  YS02001661YS02001658        0.21      0.21      5.34      0.01         0.01
  YS02001664YS02001661        0.01      0.01      1.13      0.01         0.01
  YS02001793JiankangQianchi        2.91      2.91      3.54      0.01         0.01
  YS02001757CaochengTiaoxuchi        5.23      5.23      6.04      0.01         0.01
  
  
  ***************
  Pumping Summary
  ***************
  
  ---------------------------------------------------------------------------------------------------------
                                                  Min       Avg       Max     Total     Power    % Time Off
                        Percent   Number of      Flow      Flow      Flow    Volume     Usage    Pump Curve
  Pump                 Utilized   Start-Ups       LPS       LPS       LPS  10^6 ltr     Kw-hr    Low   High
  ---------------------------------------------------------------------------------------------------------
  CC-Pump-1               47.13           7      0.00    125.31    200.00     1.620      1.91    0.0    0.7
  CC-Pump-2               55.64           6      0.00    132.94    200.00     2.041      2.52    0.0    7.2
  JK-Pump-1               78.71           7      0.00    174.54    300.00     3.132     31.90    0.0    0.0
  JK-Pump-2               76.58           9      0.00    167.72    300.00     2.881     30.37    0.0    0.0
  XR-Pump-1               74.45          10      0.00     67.03     95.00     1.368      8.09    0.0    0.0
  XR-Pump-2               82.96           8      0.00     68.83     95.00     1.596     10.70    0.0    0.0
  XR-Pump-3               78.72           6      0.00     66.24     95.00     1.454     10.32    0.0    0.0
  XR-Pump-4               74.45           9      0.00     71.75     95.00     1.482      9.43    0.0    0.0
  

  Analysis begun on:  Tue Dec 14 15:56:12 2021
  Analysis ended on:  Tue Dec 14 15:56:17 2021
  Total elapsed time: 00:00:05