
  EPA STORM WATER MANAGEMENT MODEL - VERSION 5.1 (Build 5.3.0.dev0)
  --------------------------------------------------------------

  WARNING 04: minimum elevation drop used for Conduit WS02004404WS02004405
  WARNING 03: negative offset ignored for Link YS02001904YS02001907
  
  *********************************************************
  NOTE: The summary statistics displayed in this report are
  based on results found at every computational time step,  
  not just on results from each reporting time step.
  *********************************************************
  
  ****************
  Analysis Options
  ****************
  Flow Units ............... LPS
  Process Models:
    Rainfall/Runoff ........ YES
    RDII ................... NO
    Snowmelt ............... NO
    Groundwater ............ NO
    Flow Routing ........... YES
    Ponding Allowed ........ NO
    Water Quality .......... NO
  Infiltration Method ...... HORTON
  Flow Routing Method ...... DYNWAVE
  Surcharge Method ......... EXTRAN
  Starting Date ............ 08/28/2015 08:00:00
  Ending Date .............. 08/28/2015 15:50:00
  Antecedent Dry Days ...... 8.0
  Report Time Step ......... 00:01:00
  Wet Time Step ............ 00:01:00
  Dry Time Step ............ 00:01:00
  Routing Time Step ........ 5.00 sec
  Variable Time Step ....... YES
  Maximum Trials ........... 8
  Number of Threads ........ 4
  Head Tolerance ........... 0.001500 m
  
  
  **************************        Volume         Depth
  Runoff Quantity Continuity     hectare-m            mm
  **************************     ---------       -------
  Total Precipitation ......         3.868         8.469
  Evaporation Loss .........         0.000         0.000
  Infiltration Loss ........         0.985         2.157
  Surface Runoff ...........         1.916         4.194
  Final Storage ............         0.968         2.119
  Continuity Error (%) .....        -0.017
  
  
  **************************        Volume        Volume
  Flow Routing Continuity        hectare-m      10^6 ltr
  **************************     ---------     ---------
  Dry Weather Inflow .......         0.616         6.165
  Wet Weather Inflow .......         1.915        19.148
  Groundwater Inflow .......         0.000         0.000
  RDII Inflow ..............         0.000         0.000
  External Inflow ..........         0.102         1.024
  External Outflow .........         1.562        15.624
  Flooding Loss ............         0.554         5.536
  Evaporation Loss .........         0.000         0.000
  Exfiltration Loss ........         0.000         0.000
  Initial Stored Volume ....         0.076         0.761
  Final Stored Volume ......         0.644         6.439
  Continuity Error (%) .....        -1.857
  
  
  *************************
  Highest Continuity Errors
  *************************
  Node YS02001774 (42.71%)
  Node HS02004842 (20.90%)
  Node YS02001884 (13.62%)
  Node JK-storage (-8.79%)
  Node YSB1171 (4.66%)
  
  
  ***************************
  Time-Step Critical Elements
  ***************************
  Link WS02006252WS02006251 (76.66%)
  Link 3 (17.89%)
  Link WS02006280WS02006229 (1.65%)
  
  
  ********************************
  Highest Flow Instability Indexes
  ********************************
  Link WS02006113WS02006111 (48)
  Link YS02001774YS02001770 (30)
  Link YS02001779YS02001774 (29)
  Link WS02006111WS02006112 (29)
  Link YS02001793JiankangQianchi (26)
  
  
  *************************
  Routing Time Step Summary
  *************************
  Minimum Time Step           :     0.25 sec
  Average Time Step           :     0.82 sec
  Maximum Time Step           :     5.00 sec
  Percent in Steady State     :    -0.00
  Average Iterations per Step :     4.09
  Percent Not Converging      :    18.74
  
  
  ***************************
  Subcatchment Runoff Summary
  ***************************
  
  ------------------------------------------------------------------------------------------------------------------------------
                            Total      Total      Total      Total     Imperv       Perv      Total       Total     Peak  Runoff
                           Precip      Runon       Evap      Infil     Runoff     Runoff     Runoff      Runoff   Runoff   Coeff
  Subcatchment                 mm         mm         mm         mm         mm         mm         mm    10^6 ltr      LPS
  ------------------------------------------------------------------------------------------------------------------------------
  sub0                       8.47       0.00       0.00       0.59       6.61       0.00       6.61        0.01     1.03   0.781
  sub1                       8.47       0.00       0.00       0.93       6.28       0.00       6.28        0.04     7.43   0.741
  sub2                       8.47       0.00       0.00       3.13       4.43       0.00       4.43        0.04     7.08   0.523
  sub3                       8.47       0.00       0.00       3.13       4.39       0.00       4.39        0.10    15.91   0.518
  sub4                       8.47       0.00       0.00       0.93       6.13       0.00       6.13        0.13    19.23   0.724
  sub5                       8.47       0.00       0.00       0.59       6.56       0.00       6.56        0.07    13.22   0.775
  sub7                       8.47       0.00       0.00       0.76       6.45       0.00       6.45        0.02     4.04   0.762
  sub8                       8.47       0.00       0.00       0.76       6.44       0.00       6.44        0.04     7.54   0.761
  sub9                       8.47       0.00       0.00       0.76       6.44       0.00       6.44        0.03     5.65   0.760
  sub10                      8.47       0.00       0.00       0.68       6.50       0.00       6.50        0.07    12.87   0.767
  sub11                      8.47       0.00       0.00       0.68       6.52       0.00       6.52        0.08    13.93   0.769
  sub12                      8.47       0.00       0.00       1.10       6.18       0.00       6.18        0.05    10.23   0.730
  sub14                      8.47       0.00       0.00       0.76       6.44       0.00       6.44        0.06    11.15   0.760
  sub15                      8.47       0.00       0.00       2.54       4.95       0.00       4.95        0.09    15.40   0.584
  sub16                      8.47       0.00       0.00       2.79       4.76       0.00       4.76        0.05     9.37   0.561
  sub17                      8.47       0.00       0.00       2.71       4.82       0.00       4.82        0.04     7.75   0.570
  sub22                      8.47       0.00       0.00       3.64       4.04       0.00       4.04        0.26    47.08   0.477
  sub23                      8.47       0.00       0.00       3.13       4.46       0.00       4.46        0.21    39.46   0.527
  sub60                      8.47       0.00       0.00       1.02       4.75       0.00       4.75        1.44   149.28   0.561
  sub61                      8.47       0.00       0.00       1.44       4.95       0.00       4.95        1.53   180.35   0.585
  sub62                      8.47       0.00       0.00       0.68       5.35       0.00       5.35        1.64   187.08   0.631
  sub63                      8.47       0.00       0.00       2.46       4.37       0.00       4.37        1.32   164.01   0.516
  sub64                      8.47       0.00       0.00       1.27       4.55       0.00       4.55        1.38   141.99   0.537
  sub65                      8.47       0.00       0.00       1.10       4.62       0.00       4.62        1.42   144.28   0.545
  sub66                      8.47       0.00       0.00       2.46       3.94       0.00       3.94        1.21   129.20   0.465
  sub67                      8.47       0.00       0.00       0.68       5.75       0.00       5.75        1.78   226.25   0.679
  sub68                      8.47       0.00       0.00       1.19       5.24       0.00       5.24        1.61   196.27   0.618
  sub69                      8.47       0.00       0.00       1.27       5.53       0.00       5.53        1.29   176.57   0.653
  sub70                      8.47       5.64       0.00       4.80       7.11       0.00       7.11        1.63   167.69   0.504
  sub71                      8.47       0.00       0.00       0.68       5.16       0.00       5.16        1.22   132.38   0.610
  sub72                      8.47       0.00       0.00       0.59       3.87       0.00       3.87        0.79    64.98   0.457
  sub73                      8.47       6.92       0.00       5.23       7.51       0.00       7.51        1.76   149.38   0.488
  sub74                      8.47       0.00       0.00       6.35       1.66       0.00       1.66        0.66    93.55   0.196
  
  
  ******************
  Node Depth Summary
  ******************
  
  ---------------------------------------------------------------------------------
                                 Average  Maximum  Maximum  Time of Max    Reported
                                   Depth    Depth      HGL   Occurrence   Max Depth
  Node                 Type       Meters   Meters   Meters  days hr:min      Meters
  ---------------------------------------------------------------------------------
  WS02001211           JUNCTION     0.70     0.79     5.63     0  02:30        0.79
  WS02001212           JUNCTION     0.41     0.51     5.57     0  02:30        0.51
  WS02001213           JUNCTION     0.64     0.76     5.52     0  02:31        0.76
  WS02003069           JUNCTION     0.44     0.58     5.17     0  02:32        0.58
  WS02003072           JUNCTION     0.50     0.64     5.01     0  02:33        0.64
  WS02003073           JUNCTION     0.30     0.40     4.46     0  02:33        0.40
  WS02003060           JUNCTION     0.39     0.52     5.45     0  02:32        0.52
  WS02003066           JUNCTION     0.22     0.30     5.85     0  02:34        0.30
  WS02003059           JUNCTION     0.69     0.81     5.50     0  02:31        0.81
  WS02003067           JUNCTION     0.54     0.70     6.02     0  02:34        0.70
  WS02004401           JUNCTION     0.63     0.86     6.86     0  02:31        0.86
  WS02004402           JUNCTION     0.66     0.88     6.84     0  02:33        0.88
  WS02004403           JUNCTION     0.68     0.90     6.83     0  02:31        0.90
  WS02004404           JUNCTION     0.76     0.97     6.82     0  02:32        0.97
  WS02004406           JUNCTION     0.77     0.96     6.79     0  02:32        0.96
  WS02004409           JUNCTION     0.45     0.67     6.44     0  02:33        0.67
  WS02004410           JUNCTION     0.47     0.69     6.41     0  02:33        0.69
  WS02004411           JUNCTION     0.48     0.70     6.38     0  02:33        0.70
  WS02004412           JUNCTION     0.50     0.70     6.34     0  02:33        0.70
  WS02004413           JUNCTION     0.66     0.86     6.33     0  02:34        0.86
  WS02004405           JUNCTION     0.76     0.96     6.81     0  02:32        0.96
  WS02006109           JUNCTION     0.70     0.97     7.59     0  02:29        0.97
  WS02006110           JUNCTION     0.70     0.92     7.51     0  02:29        0.92
  WS02006111           JUNCTION     0.20     0.29     6.99     0  02:30        0.29
  WS02006112           JUNCTION     0.79     1.06     6.94     0  02:33        1.06
  WS02006113           JUNCTION     0.31     0.46     7.35     0  02:29        0.46
  WS02006115           JUNCTION     0.51     0.76     6.90     0  02:32        0.76
  WS02006116           JUNCTION     0.60     0.84     6.88     0  02:32        0.84
  WS02006230           JUNCTION     0.64     1.02     7.76     0  02:29        1.02
  WS02006231           JUNCTION     0.43     0.68     7.81     0  02:30        0.68
  WS02006232           JUNCTION     0.55     0.81     7.85     0  02:30        0.81
  WS02006234           JUNCTION     0.46     0.74     7.90     0  02:30        0.74
  WS02006235           JUNCTION     0.49     0.77     7.93     0  02:30        0.77
  WS02006238           JUNCTION     0.52     0.79     7.94     0  02:30        0.79
  WS02006240           JUNCTION     0.43     0.69     7.99     0  02:30        0.69
  WS02006242           JUNCTION     0.50     0.74     8.01     0  02:30        0.74
  WS02006243           JUNCTION     0.38     0.62     8.04     0  02:30        0.62
  WS02006245           JUNCTION     0.38     0.58     8.06     0  02:31        0.58
  WS02006247           JUNCTION     0.40     0.58     8.08     0  02:31        0.58
  WS02006248           JUNCTION     0.35     0.51     8.10     0  02:31        0.51
  WS02006249           JUNCTION     0.39     0.52     8.12     0  02:31        0.52
  WS02006239           JUNCTION     0.48     0.75     7.96     0  02:30        0.75
  WS02006251           JUNCTION     0.38     0.49     8.16     0  02:32        0.49
  WS02006252           JUNCTION     0.32     0.35     8.59     0  02:01        0.35
  WS02006253           JUNCTION     0.40     0.52     8.16     0  02:32        0.52
  WS02006256           JUNCTION     0.78     1.21     8.14     0  02:30        1.21
  WS02004138           JUNCTION     0.17     0.19     7.44     0  02:02        0.19
  WS02004407           JUNCTION     0.20     0.30     6.61     0  02:32        0.30
  WS02006228           JUNCTION     0.69     1.01     7.66     0  02:29        1.01
  WS02006229           JUNCTION     0.66     1.01     7.70     0  02:29        1.01
  WS02006280           JUNCTION     0.06     0.14     8.41     0  02:27        0.14
  WS02006284           JUNCTION     0.36     0.48     8.88     0  02:27        0.48
  WS02006287           JUNCTION     0.09     0.21     9.16     0  02:27        0.21
  WSF200               JUNCTION     0.19     0.31     5.54     0  02:37        0.31
  HS02004901           JUNCTION     0.12     0.22    10.04     0  02:25        0.22
  HS02004881           JUNCTION     0.01     0.02     9.05     0  02:26        0.02
  HS02004876           JUNCTION     0.04     0.10     9.13     0  02:25        0.10
  HS02004870           JUNCTION     0.01     0.04     9.33     0  02:26        0.04
  HS02004862           JUNCTION     0.02     0.05     9.43     0  02:27        0.05
  HS02004856           JUNCTION     0.08     0.11     9.53     0  02:26        0.11
  HS02004852           JUNCTION     0.01     0.03     9.54     0  02:27        0.03
  HS02004848           JUNCTION     0.01     0.03     9.63     0  02:26        0.03
  HS02004842           JUNCTION     0.33     0.36     9.63     0  02:26        0.36
  HS02004837           JUNCTION     0.03     0.05     9.63     0  02:26        0.05
  HS02004830           JUNCTION     0.04     0.06     9.53     0  02:26        0.06
  HS02004824           JUNCTION     0.02     0.04     9.45     0  02:27        0.04
  HS02004817           JUNCTION     0.43     0.53     9.37     0  02:27        0.53
  HS02004807           JUNCTION     0.12     0.20     9.37     0  02:27        0.20
  HS02004802           JUNCTION     0.16     0.24     9.37     0  02:27        0.24
  HS02004799           JUNCTION     0.11     0.25     9.46     0  02:25        0.25
  HS02004792           JUNCTION     0.03     0.09     9.62     0  02:25        0.09
  HS02004788           JUNCTION     0.02     0.07     9.97     0  02:26        0.07
  HS02004785           JUNCTION     0.04     0.13    10.03     0  02:25        0.13
  HS02004777           JUNCTION     0.14     0.24    10.04     0  02:25        0.24
  HS02004770           JUNCTION     0.11     0.21    10.04     0  02:25        0.21
  HS02004480           JUNCTION     0.08     0.19     9.43     0  02:26        0.19
  HS02004479           JUNCTION     0.11     0.23     9.43     0  02:25        0.23
  HS02004478           JUNCTION     0.06     0.12     9.35     0  02:26        0.12
  YS02001745           JUNCTION     0.61     0.85     8.37     0  04:00        0.85
  YS02001748           JUNCTION     0.98     1.31     8.38     0  04:02        1.29
  YS02001751           JUNCTION     1.17     1.71     8.59     0  02:57        1.50
  YS02001754           JUNCTION     1.42     1.80     8.41     0  04:02        1.78
  YS02001762           JUNCTION     1.62     2.02     8.42     0  04:00        2.00
  YS02001765           JUNCTION     1.57     1.97     8.42     0  04:00        1.95
  YS02001767           JUNCTION     1.53     1.92     8.41     0  03:59        1.90
  YS02001770           JUNCTION     1.53     1.90     8.40     0  03:57        1.88
  YS02001774           JUNCTION     1.60     1.96     8.39     0  04:05        1.95
  YS02001779           JUNCTION     1.35     1.68     8.37     0  03:47        1.68
  YS02001882           JUNCTION     0.36     0.63     7.35     0  03:04        0.63
  YS02001884           JUNCTION     0.45     0.73     7.34     0  03:01        0.73
  YS02001759           JUNCTION     1.65     2.05     8.42     0  03:57        2.04
  YS02001887           JUNCTION     0.53     0.81     7.35     0  03:01        0.80
  YS02001890           JUNCTION     0.56     0.83     7.34     0  03:03        0.83
  YS02001898           JUNCTION     0.33     0.60     7.34     0  03:03        0.60
  YS02001901           JUNCTION     0.44     0.72     7.33     0  03:02        0.71
  YS02001904           JUNCTION     0.42     0.70     7.33     0  03:02        0.69
  YS02001907           JUNCTION     0.75     1.05     7.34     0  03:02        1.04
  YS02001910           JUNCTION     0.54     0.82     7.33     0  03:05        0.82
  YS02001915           JUNCTION     0.34     0.61     7.32     0  03:02        0.60
  YS02001918           JUNCTION     0.11     0.26     7.32     0  03:01        0.25
  YS02001619           JUNCTION     1.13     1.59     8.52     0  03:15        1.46
  YS02001629           JUNCTION     1.48     1.85     8.40     0  03:22        1.83
  YS02001641           JUNCTION     1.59     1.93     8.37     0  03:43        1.93
  YS02001644           JUNCTION     1.59     1.92     8.35     0  03:41        1.92
  YS02001652           JUNCTION     1.43     2.16     8.76     0  02:57        1.84
  YS02001655           JUNCTION     1.20     2.20     9.05     0  02:51        1.63
  YS02001920           JUNCTION     0.21     0.33     7.34     0  03:01        0.33
  YS02001923           JUNCTION     0.08     0.12     7.38     0  03:02        0.12
  YS02001926           JUNCTION     0.17     0.23     7.67     0  03:02        0.23
  YS02001929           JUNCTION     0.08     0.12     7.81     0  03:01        0.12
  YS02001658           JUNCTION     0.93     2.29     9.43     0  03:16        1.37
  YS02001661           JUNCTION     0.71     1.84     9.24     0  03:52        1.14
  YS02001664           JUNCTION     0.31     0.57     8.49     0  03:51        0.56
  YS02001622           JUNCTION     1.15     1.58     8.49     0  03:15        1.48
  YS02001633           JUNCTION     1.58     1.94     8.40     0  03:48        1.92
  YS02001649           JUNCTION     1.63     2.05     8.44     0  03:49        2.02
  YS02001757           JUNCTION     1.75     2.16     8.42     0  04:02        2.14
  YS02001895           JUNCTION     0.32     0.59     7.33     0  03:00        0.59
  YS02001625           JUNCTION     1.44     1.78     8.38     0  03:19        1.78
  YS02163301           JUNCTION     1.51     1.88     8.40     0  03:48        1.86
  YS02163601           JUNCTION     1.63     1.99     8.39     0  03:48        1.97
  YS02164001           JUNCTION     1.57     1.92     8.38     0  03:48        1.90
  YS02001647           JUNCTION     1.42     1.80     8.41     0  03:53        1.77
  YSB1154              JUNCTION     0.25     0.38     9.43     0  02:26        0.38
  YSB6556              JUNCTION     0.15     0.26     9.43     0  02:26        0.26
  YSB1174              JUNCTION     0.20     0.32     9.43     0  02:26        0.32
  YSB1171              JUNCTION     0.40     0.53     9.43     0  02:25        0.53
  YS02006553           JUNCTION     0.76     1.06     7.34     0  02:55        1.04
  YS02006561           JUNCTION     0.18     0.40     7.06     0  03:00        0.36
  YS02006556           JUNCTION     0.73     1.02     7.33     0  02:59        1.02
  YS02006558           JUNCTION     0.77     1.07     7.33     0  03:02        1.05
  YS02001783           JUNCTION     0.48     1.50     7.65     0  02:59        0.91
  YS02001784           JUNCTION     0.53     1.38     7.45     0  02:59        0.92
  YS02001786           JUNCTION     0.53     1.65     7.68     0  02:59        0.88
  YS02001788           JUNCTION     0.54     1.89     7.87     0  02:59        0.89
  YS02001790           JUNCTION     0.80     1.96     7.60     0  02:58        1.14
  YS02001791           JUNCTION     0.89     2.42     7.89     0  02:58        1.21
  YS02001793           JUNCTION     1.35     2.97     7.80     0  02:56        1.79
  WS02004139           JUNCTION     0.64     0.74     5.65     0  02:30        0.74
  WSC                  OUTFALL      0.30     0.40     1.07     0  02:34        0.40
  3                    OUTFALL      0.03     0.21     6.21     0  02:30        0.21
  4                    OUTFALL      0.00     0.02     7.02     0  02:31        0.02
  5                    OUTFALL      0.00     0.00     5.00     0  00:00        0.00
  JK-storage           STORAGE      4.56     5.80     6.60     0  02:58        5.80
  CC-storage           STORAGE      0.98     1.36     8.36     0  04:06        1.36
  XR-storage           STORAGE      6.82     7.72     5.72     0  03:20        7.72
  
  
  *******************
  Node Inflow Summary
  *******************
  
  -------------------------------------------------------------------------------------------------
                                  Maximum  Maximum                  Lateral       Total        Flow
                                  Lateral    Total  Time of Max      Inflow      Inflow     Balance
                                   Inflow   Inflow   Occurrence      Volume      Volume       Error
  Node                 Type           LPS      LPS  days hr:min    10^6 ltr    10^6 ltr     Percent
  -------------------------------------------------------------------------------------------------
  WS02001211           JUNCTION      7.35   387.21     0  02:30       0.207        7.84       0.469
  WS02001212           JUNCTION      0.00   386.71     0  02:30           0         7.8       0.259
  WS02001213           JUNCTION      0.00   386.31     0  02:30           0        7.78       0.283
  WS02003069           JUNCTION      0.32   944.78     0  02:32     0.00902        14.3       0.192
  WS02003072           JUNCTION      0.00   944.61     0  02:33           0        14.3       0.239
  WS02003073           JUNCTION      1.82   946.31     0  02:33      0.0514        14.3       0.265
  WS02003060           JUNCTION     16.53   944.53     0  02:31       0.466        14.4       0.182
  WS02003066           JUNCTION      0.00   545.65     0  02:34           0        6.18       0.060
  WS02003059           JUNCTION      0.00   385.77     0  02:31           0        7.76       0.487
  WS02003067           JUNCTION      0.00   545.62     0  02:34           0        6.19       0.132
  WS02004401           JUNCTION      0.00   547.03     0  02:33           0        6.39       0.296
  WS02004402           JUNCTION      0.00   546.60     0  02:33           0        6.37       0.283
  WS02004403           JUNCTION      0.00   546.39     0  02:31           0        6.35       0.261
  WS02004404           JUNCTION      0.16   546.51     0  02:32     0.00457        6.34       0.200
  WS02004406           JUNCTION      0.00   546.67     0  02:33           0        6.31       0.489
  WS02004409           JUNCTION      0.00   546.36     0  02:32           0        6.27       0.210
  WS02004410           JUNCTION      0.00   546.13     0  02:33           0        6.26       0.242
  WS02004411           JUNCTION      0.00   545.93     0  02:33           0        6.25       0.253
  WS02004412           JUNCTION      0.00   545.80     0  02:33           0        6.23       0.280
  WS02004413           JUNCTION      0.00   545.71     0  02:33           0        6.21       0.426
  WS02004405           JUNCTION      0.04   546.53     0  02:33     0.00107        6.33       0.299
  WS02006109           JUNCTION      1.23   539.34     0  02:29      0.0347        6.46       0.321
  WS02006110           JUNCTION      0.00   539.34     0  02:29           0        6.44       0.274
  WS02006111           JUNCTION      0.00   561.38     0  02:30           0        6.41       0.058
  WS02006112           JUNCTION      7.75   552.23     0  02:30      0.0414        6.45       0.415
  WS02006113           JUNCTION      0.00   539.57     0  02:29           0        6.42       0.122
  WS02006115           JUNCTION      0.00   551.51     0  02:32           0        6.42       0.262
  WS02006116           JUNCTION      0.00   548.17     0  02:32           0        6.41       0.253
  WS02006230           JUNCTION     10.28   335.05     0  02:30        0.29        5.15       0.220
  WS02006231           JUNCTION      0.00   324.63     0  02:30           0        4.87       0.204
  WS02006232           JUNCTION      0.00   324.61     0  02:30           0        4.88       0.296
  WS02006234           JUNCTION      0.00   324.88     0  02:50           0        4.89       0.126
  WS02006235           JUNCTION      0.00   324.87     0  02:50           0        4.93       0.185
  WS02006238           JUNCTION      0.00   286.15     0  02:40           0        4.43       0.145
  WS02006240           JUNCTION      0.00   273.81     0  02:40           0        4.42       0.225
  WS02006242           JUNCTION      0.00   268.59     0  02:41           0        4.42       0.289
  WS02006243           JUNCTION      0.00   260.01     0  02:41           0        4.42       0.160
  WS02006245           JUNCTION      0.00   255.35     0  02:41           0        4.43       0.168
  WS02006247           JUNCTION      0.00   251.31     0  02:42           0        4.43       0.148
  WS02006248           JUNCTION      0.00   247.28     0  02:42           0        4.44       0.098
  WS02006249           JUNCTION      0.00   243.97     0  02:42           0        4.45       0.218
  WS02006239           JUNCTION      0.00   280.74     0  02:40           0        4.42       0.215
  WS02006251           JUNCTION      0.08   240.95     0  02:26     0.00217        4.46       0.195
  WS02006252           JUNCTION      0.00   200.00     0  02:30           0        4.23       0.010
  WS02006253           JUNCTION      1.03    41.74     0  02:26     0.00535       0.235       1.627
  WS02006256           JUNCTION      0.00   600.00     0  02:16           0        1.85       0.134
  WS02004138           JUNCTION      0.00   380.00     0  02:00           0        7.67       0.061
  WS02004407           JUNCTION      0.00   546.44     0  02:32           0        6.28       0.097
  WS02006228           JUNCTION      0.00   538.12     0  02:29           0        6.44       0.214
  WS02006229           JUNCTION      0.00   538.08     0  02:29           0        6.45       0.173
  WS02006280           JUNCTION      0.00   204.81     0  02:27           0        1.31       0.005
  WS02006284           JUNCTION      0.10   204.80     0  02:27      0.0027        1.31       0.088
  WS02006287           JUNCTION      0.00   204.70     0  02:27           0        1.31       0.053
  WSF200               JUNCTION      0.00   545.66     0  02:34           0        6.17       0.055
  HS02004901           JUNCTION      9.37     9.37     0  02:23      0.0498      0.0501       3.647
  HS02004881           JUNCTION      4.04    40.76     0  02:26      0.0217        0.23       0.122
  HS02004876           JUNCTION      7.43    36.75     0  02:26      0.0417       0.209       0.259
  HS02004870           JUNCTION      7.54    29.42     0  02:26      0.0411       0.167       0.066
  HS02004862           JUNCTION      7.28    22.06     0  02:26      0.0469       0.126       0.137
  HS02004856           JUNCTION      5.65    14.84     0  02:26       0.031      0.0805       1.824
  HS02004852           JUNCTION      0.00     9.33     0  02:26           0      0.0496       0.109
  HS02004848           JUNCTION     15.91    15.91     0  02:26      0.0988      0.0988       0.047
  HS02004842           JUNCTION      0.00     6.79     0  02:52           0      0.0622      26.415
  HS02004837           JUNCTION     19.22    25.66     0  02:25       0.251         0.3       0.272
  HS02004830           JUNCTION      0.15    25.80     0  02:26     0.00423        0.29       0.427
  HS02004824           JUNCTION     19.28    44.91     0  02:27       0.129       0.418       0.129
  HS02004817           JUNCTION      0.60    45.51     0  02:27      0.0169       0.435       3.988
  HS02004807           JUNCTION     13.93    58.94     0  02:27      0.0757       0.494       0.884
  HS02004802           JUNCTION      0.00    59.00     0  02:28           0       0.491       0.809
  HS02004799           JUNCTION     11.15   123.20     0  02:25      0.0613       0.713       0.360
  HS02004792           JUNCTION     47.36   112.13     0  02:24       0.263       0.652       0.064
  HS02004788           JUNCTION     17.07    65.26     0  02:25       0.132        0.39       0.102
  HS02004785           JUNCTION      0.15    48.39     0  02:25     0.00423       0.259       0.188
  HS02004777           JUNCTION      0.03    48.40     0  02:24    0.000846        0.26       2.037
  HS02004770           JUNCTION     39.46    48.64     0  02:23       0.213       0.261       1.203
  HS02004480           JUNCTION      0.00   146.07     0  02:25           0       0.837       0.127
  HS02004479           JUNCTION      0.00    23.09     0  02:27           0       0.137       0.537
  HS02004478           JUNCTION      0.00   204.69     0  02:26           0        1.31       0.031
  YS02001745           JUNCTION    149.28   236.75     0  03:11        1.44        1.45       0.732
  YS02001748           JUNCTION      0.04   359.46     0  03:13     0.00127        1.44       1.638
  YS02001751           JUNCTION      0.01   323.58     0  02:57     0.00031        1.41       1.674
  YS02001754           JUNCTION      0.26   207.92     0  03:07     0.00733        1.39       1.825
  YS02001762           JUNCTION      0.00   200.75     0  02:54           0        1.56       1.374
  YS02001765           JUNCTION      0.00   198.39     0  02:59           0        1.57       1.589
  YS02001767           JUNCTION      0.54   197.01     0  02:54      0.0151        1.59       2.315
  YS02001770           JUNCTION    187.24   195.30     0  02:54        1.65        1.65       1.960
  YS02001774           JUNCTION      0.00    32.66     0  01:57           0      0.0592      74.549
  YS02001779           JUNCTION      0.01    22.39     0  02:47    0.000141      0.0266     131.026
  YS02001882           JUNCTION      0.00    12.50     0  03:09           0      0.0129      17.821
  YS02001884           JUNCTION      0.00    18.21     0  03:03           0      0.0401      15.764
  YS02001759           JUNCTION    180.39   381.08     0  02:59        1.53        3.06       0.757
  YS02001887           JUNCTION    226.70   242.54     0  03:02        1.79        1.81       0.433
  YS02001890           JUNCTION      0.00   239.95     0  03:02           0        1.77       0.481
  YS02001898           JUNCTION      0.00   242.66     0  02:58           0        1.76       0.153
  YS02001901           JUNCTION      0.00   245.76     0  02:59           0        1.76       0.353
  YS02001904           JUNCTION      0.00   238.54     0  02:58           0        1.75       0.325
  YS02001907           JUNCTION      0.00   456.42     0  03:01           0        3.82       0.611
  YS02001910           JUNCTION      0.00   222.25     0  03:01           0        2.08       0.527
  YS02001915           JUNCTION    132.40   215.99     0  03:02        1.22        2.08       0.254
  YS02001918           JUNCTION      0.00    77.79     0  03:02           0       0.866       0.176
  YS02001619           JUNCTION    129.20   129.20     0  03:01        1.21        1.21       0.997
  YS02001629           JUNCTION      0.00   211.78     0  02:52           0        1.13       2.573
  YS02001641           JUNCTION      0.00   313.98     0  03:04           0        2.45       0.871
  YS02001644           JUNCTION    142.03   453.76     0  03:01        1.38        4.04       0.652
  YS02001652           JUNCTION      0.00   225.32     0  03:06           0        1.27       1.889
  YS02001655           JUNCTION      0.15   390.95     0  02:57     0.00434        1.29       1.826
  YS02001920           JUNCTION      2.87    67.64     0  03:02      0.0809       0.868       0.287
  YS02001923           JUNCTION      0.04    64.78     0  03:02     0.00106       0.788       0.052
  YS02001926           JUNCTION      0.05    64.97     0  03:01     0.00147       0.789       0.356
  YS02001929           JUNCTION     64.98    64.98     0  03:01       0.788       0.788       0.051
  YS02001658           JUNCTION      0.00   537.56     0  03:14           0         1.4       1.448
  YS02001661           JUNCTION      0.00   470.09     0  03:48           0        2.05       0.348
  YS02001664           JUNCTION    164.01   391.33     0  03:49        1.32        1.97       0.278
  YS02001622           JUNCTION      0.00   167.17     0  02:55           0         1.2       2.683
  YS02001633           JUNCTION    144.48   314.26     0  03:04        1.43         2.5       1.306
  YS02001649           JUNCTION      0.00   614.12     0  02:59           0        3.93       0.957
  YS02001757           JUNCTION      0.00  1099.74     0  03:02           0        8.02       1.163
  YS02001895           JUNCTION      0.00   239.59     0  02:59           0        1.76       0.241
  YS02001625           JUNCTION      0.00   211.75     0  02:52           0        1.16       3.450
  YS02163301           JUNCTION      0.00   174.94     0  03:04           0         1.1       2.231
  YS02163601           JUNCTION      0.11   314.06     0  03:04      0.0031        2.47       1.235
  YS02164001           JUNCTION      0.00   314.08     0  03:04           0        2.45       0.829
  YS02001647           JUNCTION      0.00   453.47     0  03:01           0        2.87       0.995
  YSB1154              JUNCTION     13.22    13.22     0  02:24      0.0743      0.0752       1.964
  YSB6556              JUNCTION      0.00    13.14     0  02:25           0      0.0759       1.671
  YSB1174              JUNCTION     10.23    10.23     0  02:22       0.054      0.0546       2.413
  YSB1171              JUNCTION      0.00    23.08     0  02:25           0       0.136       4.884
  YS02006553           JUNCTION      0.00   443.66     0  02:58           0        3.81       0.390
  YS02006561           JUNCTION      0.00   674.93     0  03:02           0        5.39       0.001
  YS02006556           JUNCTION      0.00   445.74     0  03:01           0        3.81       0.283
  YS02006558           JUNCTION    197.15   656.52     0  03:00        1.63        5.42       0.099
  YS02001783           JUNCTION      0.00   658.12     0  02:59           0        5.39       0.132
  YS02001784           JUNCTION      1.06   646.85     0  03:01      0.0299        5.42       0.198
  YS02001786           JUNCTION      0.06   646.27     0  03:00     0.00159        5.41       0.245
  YS02001788           JUNCTION      0.07   644.97     0  03:01       0.002        5.39       0.254
  YS02001790           JUNCTION      0.15   645.69     0  03:01     0.00437        5.39       0.319
  YS02001791           JUNCTION      0.00   645.70     0  03:01           0        5.37       0.271
  YS02001793           JUNCTION      0.00   674.07     0  02:56           0        5.35       0.289
  WS02004139           JUNCTION      0.32   380.32     0  02:02     0.00905        7.67       0.490
  WSC                  OUTFALL       0.00   946.18     0  02:34           0        14.3       0.000
  3                    OUTFALL       0.00   509.20     0  02:30           0        1.33       0.000
  4                    OUTFALL       0.00     4.61     0  02:31           0     0.00232       0.000
  5                    OUTFALL       0.00     0.00     0  00:00           0           0       0.000 ltr
  JK-storage           STORAGE       0.00   986.07     0  02:55           0        5.49      -8.077
  CC-storage           STORAGE       0.00  1100.00     0  03:02           0        7.84       0.807
  XR-storage           STORAGE     442.93   442.93     0  03:01        8.07        8.67      -0.000
  
  
  **********************
  Node Surcharge Summary
  **********************
  
  Surcharging occurs when water rises above the top of the highest conduit.
  ---------------------------------------------------------------------
                                               Max. Height   Min. Depth
                                   Hours       Above Crown    Below Rim
  Node                 Type      Surcharged         Meters       Meters
  ---------------------------------------------------------------------
  WS02006109           JUNCTION        1.11          0.154        1.666
  WS02006110           JUNCTION        0.30          0.014        1.836
  WS02006112           JUNCTION        0.81          0.058        1.622
  WS02006232           JUNCTION        0.88          0.106        1.374
  WS02006234           JUNCTION        0.21          0.019        1.221
  WS02006235           JUNCTION        0.60          0.057        1.233
  WS02006238           JUNCTION        0.72          0.073        1.357
  WS02006242           JUNCTION        0.16          0.014        0.806
  WS02006239           JUNCTION        0.16          0.013        1.277
  WS02006228           JUNCTION        1.10          0.182        2.018
  YS02001748           JUNCTION        4.32          0.227        0.963
  YS02001751           JUNCTION        4.76          0.715        0.485
  YS02001754           JUNCTION        5.18          0.749        0.401
  YS02001762           JUNCTION        5.50          1.021        0.129
  YS02001765           JUNCTION        5.47          0.965        0.135
  YS02001767           JUNCTION        5.43          0.923        0.107
  YS02001770           JUNCTION        5.41          0.872        0.048
  YS02001774           JUNCTION        5.49          0.964        0.086
  YS02001779           JUNCTION        5.13          0.680        0.000
  YS02001759           JUNCTION        5.53          1.055        0.155
  YS02001907           JUNCTION        0.27          0.042        0.908
  YS02001619           JUNCTION        4.70          0.595        0.015
  YS02001629           JUNCTION        4.72          0.470        0.000
  YS02001641           JUNCTION        5.48          0.934        0.166
  YS02001644           JUNCTION        5.48          0.920        0.000
  YS02001652           JUNCTION        5.24          1.130        0.000
  YS02001655           JUNCTION        4.78          1.200        0.000
  YS02001658           JUNCTION        4.34          1.291        0.009
  YS02001661           JUNCTION        0.07          0.769        0.621
  YS02001622           JUNCTION        4.81          0.584        0.036
  YS02001633           JUNCTION        5.45          0.924        0.136
  YS02001649           JUNCTION        5.51          1.050        0.000
  YS02001757           JUNCTION        5.64          1.160        0.050
  YS02001625           JUNCTION        5.31          0.780        0.000
  YS02163301           JUNCTION        5.42          0.883        0.147
  YS02163601           JUNCTION        5.51          0.990        0.090
  YS02164001           JUNCTION        5.47          0.922        0.178
  YS02001647           JUNCTION        5.27          0.799        0.101
  YS02006553           JUNCTION        0.40          0.057        1.133
  YS02001783           JUNCTION        0.12          0.705        0.895
  YS02001784           JUNCTION        0.24          0.584        0.906
  YS02001786           JUNCTION        0.14          0.855        0.575
  YS02001788           JUNCTION        0.08          1.090        0.390
  YS02001790           JUNCTION        4.86          1.157        0.000
  YS02001791           JUNCTION        4.87          1.618        0.302
  YS02001793           JUNCTION        4.89          1.972        0.628
  
  
  *********************
  Node Flooding Summary
  *********************
  
  Flooding refers to all water that overflows a node, whether it ponds or not.
  --------------------------------------------------------------------------
                                                             Total   Maximum
                                 Maximum   Time of Max       Flood    Ponded
                        Hours       Rate    Occurrence      Volume     Depth
  Node                 Flooded       LPS   days hr:min    10^6 ltr    Meters
  --------------------------------------------------------------------------
  YS02001779              0.84      9.20      0  04:02       0.005     0.000
  YS02001629              0.01     14.21      0  03:22       0.000     0.000
  YS02001644              2.98    409.44      0  04:10       1.377     0.000
  YS02001652              0.01     24.20      0  02:58       0.000     0.000
  YS02001655              0.01    212.86      0  02:59       0.000     0.000
  YS02001649              0.01     20.15      0  03:52       0.000     0.000
  YS02001625              0.05     12.55      0  03:22       0.000     0.000
  YS02001790              0.01    121.13      0  02:58       0.000     0.000
  JK-storage              4.85    645.72      0  03:01       3.828     0.000
  XR-storage              1.99    112.99      0  03:20       0.325     0.000
  
  
  **********************
  Storage Volume Summary
  **********************
  
  --------------------------------------------------------------------------------------------------
                         Average     Avg  Evap Exfil       Maximum     Max    Time of Max    Maximum
                          Volume    Pcnt  Pcnt  Pcnt        Volume    Pcnt     Occurrence    Outflow
  Storage Unit           1000 m3    Full  Loss  Loss       1000 m3    Full    days hr:min        LPS
  --------------------------------------------------------------------------------------------------
  JK-storage               0.229      79     0     0         0.291     100       0  02:58     600.00
  CC-storage               2.719      17     0     0         3.784      24       0  04:06     200.00
  XR-storage               0.818      88     0     0         0.926     100       0  03:20     380.00
  
  
  ***********************
  Outfall Loading Summary
  ***********************
  
  -----------------------------------------------------------
                         Flow       Avg       Max       Total
                         Freq      Flow      Flow      Volume
  Outfall Node           Pcnt       LPS       LPS    10^6 ltr
  -----------------------------------------------------------
  WSC                   99.99    581.58    946.18      14.296
  3                     21.14    310.72    509.20       1.326
  4                      4.96      2.34      4.61       0.002
  5                      0.00      0.00      0.00       0.000
  -----------------------------------------------------------
  System                31.52    894.64   1448.23      15.624
  
  
  ********************
  Link Flow Summary
  ********************
  
  -----------------------------------------------------------------------------
                                 Maximum  Time of Max   Maximum    Max/    Max/
                                  |Flow|   Occurrence   |Veloc|    Full    Full
  Link                 Type          LPS  days hr:min     m/sec    Flow   Depth
  -----------------------------------------------------------------------------
  WS02003066WSF200     CONDUIT    545.66     0  02:34      2.77    0.09    0.23
  WS02006287WS02006284 CONDUIT    204.71     0  02:27      1.62    0.09    0.22
  WS02006284WS02006280 CONDUIT    204.81     0  02:27      1.86    0.09    0.20
  WS02006280WS02006229 CONDUIT    204.81     0  02:27      2.99    0.04    0.14
  WS02006229WS02006228 CONDUIT    538.12     0  02:29      1.07    1.78    1.00
  WS02006256WS02006235 CONDUIT    166.25     0  00:01      2.58    1.76    1.00
  WS02006253WS02006251 CONDUIT     40.88     0  02:26      0.43    0.12    0.71
  WS02006252WS02006251 CONDUIT    200.34     0  02:01      1.97    0.74    0.76
  WS02006251WS02006249 CONDUIT    243.97     0  02:42      0.95    0.70    0.72
  WS02006249WS02006248 CONDUIT    247.28     0  02:42      1.04    1.35    0.72
  WS02006248WS02006247 CONDUIT    251.31     0  02:42      1.00    0.55    0.77
  WS02006247WS02006245 CONDUIT    255.35     0  02:41      0.96    2.02    0.82
  WS02006245WS02006243 CONDUIT    260.01     0  02:41      1.00    0.77    0.84
  WS02006243WS02006242 CONDUIT    268.59     0  02:41      0.85    0.57    0.94
  WS02006242WS02006240 CONDUIT    273.81     0  02:40      0.79    1.09    0.99
  WS02006240WS02006239 CONDUIT    280.74     0  02:40      0.86    0.88    0.99
  WS02006239WS02006238 CONDUIT    286.15     0  02:40      0.77    0.92    1.00
  WS02006238WS02006235 CONDUIT    288.40     0  02:40      1.25    0.64    1.00
  WS02006235WS02006234 CONDUIT    324.88     0  02:50      0.93    3.43    1.00
  WS02006234WS02006232 CONDUIT    324.61     0  02:30      1.13    0.66    1.00
  WS02006232WS02006231 CONDUIT    324.63     0  02:30      0.86    0.68    0.98
  WS02006231WS02006230 CONDUIT    324.77     0  02:30      1.14    4.93    0.94
  WS02006230WS02006229 CONDUIT    335.58     0  02:31      0.87    7.47    1.00
  WS02006228WS02006109 CONDUIT    538.11     0  02:29      1.07    2.35    1.00
  WS02006116WS02004401 CONDUIT    547.03     0  02:33      0.77    0.75    0.85
  WS02006115WS02006116 CONDUIT    548.17     0  02:32      0.85    0.70    0.77
  WS02006113WS02006111 CONDUIT    561.38     0  02:30      2.46    0.67    0.46
  WS02006112WS02006115 CONDUIT    551.51     0  02:32      0.76    0.33    0.87
  WS02006111WS02006112 CONDUIT    545.28     0  02:30      1.51    0.26    0.67
  WS02006110WS02006113 CONDUIT    539.57     0  02:29      1.28    0.49    0.78
  WS02006109WS02006110 CONDUIT    539.34     0  02:29      1.07    1.04    1.00
  WS02004411WS02004412 CONDUIT    545.80     0  02:33      0.93    0.78    0.70
  WS02004401WS02004402 CONDUIT    546.60     0  02:33      0.77    0.66    0.87
  WS02004413WS02003067 CONDUIT    545.62     0  02:34      1.12    0.23    0.60
  WS02004412WS02004413 CONDUIT    545.71     0  02:33      0.83    0.37    0.78
  WS02004410WS02004411 CONDUIT    545.93     0  02:33      0.94    0.75    0.69
  WS02004409WS02004410 CONDUIT    546.13     0  02:33      0.96    0.71    0.68
  WS02004407WS02004409 CONDUIT    546.36     0  02:32      1.44    0.19    0.49
  WS02004406WS02004407 CONDUIT    546.44     0  02:32      1.05    0.24    0.63
  WS02004405WS02004406 CONDUIT    546.67     0  02:33      0.71    1.08    0.96
  WS02004404WS02004405 CONDUIT    546.49     0  02:33      0.84    5.35    0.97
  WS02004403WS02004404 CONDUIT    546.35     0  02:32      0.74    0.39    0.93
  WS02004402WS02004403 CONDUIT    546.39     0  02:31      0.75    0.79    0.89
  WS02004139WS02001211 CONDUIT    379.86     0  02:30      0.69    0.48    0.60
  WS02004138WS02004139 CONDUIT    380.00     0  02:02      2.94    0.08    0.44
  WS02003067WS02003066 CONDUIT    545.65     0  02:34      1.22    0.17    0.42
  WS02001213WS02003059 CONDUIT    385.77     0  02:31      0.65    0.64    0.77
  WS02001212WS02001213 CONDUIT    386.31     0  02:30      1.29    0.60    0.47
  WS02001211WS02001212 CONDUIT    386.71     0  02:30      0.77    0.30    0.65
  WS02003072WS02003073 CONDUIT    944.49     0  02:33      1.73    2.04    0.49
  WS02003069WS02003072 CONDUIT    944.61     0  02:33      1.62    0.45    0.51
  WS02003060WS02003069 CONDUIT    944.46     0  02:32      1.87    0.37    0.46
  WS02003059WS02003060 CONDUIT    385.19     0  02:31      0.80    0.25    0.66
  HS02004901HS02004770 CONDUIT      9.22     0  02:24      0.05    0.03    0.31
  HS02004876HS02004881 CONDUIT     36.81     0  02:26      0.59    0.39    0.09
  HS02004870HS02004876 CONDUIT     29.40     0  02:26      0.41    0.02    0.10
  HS02004842HS02004848 CONDUIT      6.79     0  02:52      0.04    0.00    0.28
  HS02004837HS02004842 CONDUIT      7.01     0  03:02      0.41    0.00    0.29
  HS02004830HS02004837 CONDUIT     25.65     0  02:26      0.46    0.03    0.08
  HS02004824HS02004830 CONDUIT     25.79     0  02:27      0.49    0.03    0.08
  HS02004817HS02004824 CONDUIT     44.91     0  02:27      0.17    0.02    0.41
  HS02004770HS02004777 CONDUIT     48.37     0  02:24      0.21    0.09    0.33
  HS02004799HS02004480 CONDUIT    123.11     0  02:25      0.58    0.16    0.31
  HS02004792HS02004799 CONDUIT    112.10     0  02:25      0.66    0.07    0.24
  HS02004788HS02004792 CONDUIT     65.23     0  02:26      0.81    0.04    0.11
  HS02004785HS02004788 CONDUIT     48.34     0  02:26      0.49    0.36    0.14
  HS02004777HS02004785 CONDUIT     48.24     0  02:25      0.26    0.06    0.26
  HS02004480HS02004478 CONDUIT    146.06     0  02:26      0.94    0.62    0.22
  HS02004479HS02004480 CONDUIT     23.22     0  02:28      0.27    0.02    0.30
  HS02004862HS02004870 CONDUIT     22.03     0  02:27      0.49    0.02    0.06
  HS02004848HS02004852 CONDUIT      9.33     0  02:26      0.33    0.01    0.04
  HS02004856HS02004862 CONDUIT     14.82     0  02:26      0.35    0.01    0.06
  HS02004852HS02004856 CONDUIT      9.30     0  02:27      0.14    0.01    0.10
  HS02004802HS02004478 CONDUIT     59.19     0  02:29      0.33    0.05    0.26
  HS02004478WS02006287 CONDUIT    204.70     0  02:27      1.31    0.06    0.17
  HS02004817HS02004807 CONDUIT     45.68     0  02:29      0.13    0.03    0.52
  HS02004807HS02004802 CONDUIT     59.00     0  02:28      0.28    0.11    0.31
  YS02001759YS02001757 CONDUIT    382.38     0  02:59      0.49    0.27    1.00
  YS02001762YS02001759 CONDUIT    203.80     0  02:54      0.26    0.23    1.00
  YS02001765YS02001762 CONDUIT    200.75     0  02:54      0.28    0.19    1.00
  YS02001770YS02001767 CONDUIT    196.47     0  02:54      0.25    0.78    1.00
  YS02001774YS02001770 CONDUIT     32.66     0  01:57      0.22    0.02    1.00
  YS02001779YS02001774 CONDUIT     22.38     0  02:47      0.05    0.01    1.00
  YS02001649YS02001757 CONDUIT    614.47     0  02:59      0.78    0.37    1.00
  YS02001767YS02001765 CONDUIT    198.39     0  02:59      0.30    0.25    1.00
  YS02006561YS02001783 CONDUIT    658.12     0  02:59      2.09    0.34    0.75
  YS02001783YS02001784 CONDUIT    645.79     0  03:01      1.55    0.89    1.00
  YS02001784YS02001785 CONDUIT    646.21     0  03:00      1.66    1.50    1.00
  YS02001788YS02001790 CONDUIT    645.54     0  03:01      2.17    0.48    1.00
  YS02001790YS02001791 CONDUIT    645.70     0  03:01      2.58    0.70    1.00
  YS02001791YS02001793 CONDUIT    674.07     0  02:56      5.28    0.29    1.00
  YS02001910YS02001907 CONDUIT    222.91     0  03:01      0.49    0.13    0.91
  YS02001786YS02001788 CONDUIT    644.90     0  03:01      2.10    1.24    1.00
  YS02001915YS02001910 CONDUIT    222.25     0  03:01      0.55    0.11    0.71
  YS02001918YS02001915 CONDUIT     85.36     0  03:02      0.44    0.05    0.43
  YS02001923YS02001920 CONDUIT     64.77     0  03:02      0.57    0.03    0.22
  YS02001926YS02001923 CONDUIT     64.74     0  03:02      0.66    0.09    0.18
  YS02001929YS02001926 CONDUIT     64.92     0  03:01      0.71    0.03    0.17
  YS02001920YS02001918 CONDUIT     77.79     0  03:02      0.57    0.08    0.29
  YS02001629YS02163301 CONDUIT    174.94     0  03:04      0.22    0.22    1.00
  YS02001619YS02001622 CONDUIT    167.17     0  02:55      0.57    0.25    1.00
  YS02001622YS02001625 CONDUIT    211.75     0  02:52      0.31    0.11    1.00
  YS02001625YS02001629 CONDUIT    211.78     0  02:52      0.28    0.10    1.00
  YS02163301YS02001633 CONDUIT    175.14     0  03:04      0.22    0.16    1.00
  YS02163601YS02164001 CONDUIT    314.08     0  03:04      0.40    0.28    1.00
  YS02164001YS02001641 CONDUIT    313.98     0  03:04      0.40    0.43    1.00
  YS02001641YS02001644 CONDUIT    314.03     0  03:04      0.40    1.02    1.00
  YS02001647YS02001649 CONDUIT    452.74     0  03:01      0.58    0.24    1.00
  YS02006553YS02006556 CONDUIT    445.74     0  03:01      0.57    0.38    0.99
  YS02006556YS02006558 CONDUIT    466.03     0  03:09      0.59    0.37    1.00
  YSB6556YSB1171       CONDUIT     13.19     0  02:28      0.06    0.01    0.57
  YS02001907YS02006553 CONDUIT    443.66     0  02:58      0.49    0.52    1.00
  YS02006558YS02006561 CONDUIT    674.93     0  03:02      3.15    1.49    0.78
  YS02001633YS02163601 CONDUIT    313.95     0  03:04      0.40    0.33    1.00
  YS02001644YS02001647 CONDUIT    453.47     0  03:01      0.58    0.27    1.00
  YS02001745YS02001748 CONDUIT    359.42     0  03:13      1.42    0.14    0.93
  YS02001748YS02001751 CONDUIT    323.57     0  02:57      1.00    0.16    1.00
  YS02001751YS02001754 CONDUIT    207.66     0  03:07      0.86    0.10    1.00
  YS02001754YS02001757 CONDUIT    207.67     0  03:07      0.33    0.08    1.00
  YS02001882YS02001884 CONDUIT     14.95     0  03:05      0.09    0.02    0.65
  YS02001884YS02001887 CONDUIT     20.58     0  03:02      0.05    0.03    0.74
  YS02001890YS02001895 CONDUIT    239.59     0  02:59      0.41    0.11    0.71
  YS02001895YS02001898 CONDUIT    242.66     0  02:58      0.53    0.42    0.58
  YS02001898YS02001901 CONDUIT    245.76     0  02:59      0.46    0.16    0.66
  YS02001901YS02001904 CONDUIT    238.54     0  02:58      0.41    0.37    0.71
  YS02001904YS02001907 CONDUIT    245.31     0  02:58      0.35    0.09    0.85
  YS02001887YS02001890 CONDUIT    239.95     0  03:02      0.36    0.41    0.80
  YS02001652YS02001649 CONDUIT    225.10     0  03:06      0.56    0.11    1.00
  YS02001655YS02001652 CONDUIT    225.32     0  03:06      0.91    0.11    1.00
  YS02001658YS02001655 CONDUIT    390.80     0  02:57      1.15    0.17    1.00
  YS02001661YS02001658 CONDUIT    537.56     0  03:14      1.49    0.21    1.00
  YS02001664YS02001661 CONDUIT    470.09     0  03:48      1.39    0.15    0.71
  YSB1154YSB6556       CONDUIT     13.14     0  02:25      0.16    0.02    0.46
  YSB1174YSB1171       CONDUIT     10.08     0  02:23      0.04    0.02    0.57
  YSB1171HS02004479    CONDUIT     23.09     0  02:27      0.54    0.02    0.44
  HS02004881HS02006253 CONDUIT     40.75     0  02:26      1.48    0.01    0.14
  YS02001793JiankangQianchi CONDUIT    986.07     0  02:55     14.71    0.08    1.00
  YS02001757CaochengTiaoxuchi CONDUIT   1100.00     0  03:02      1.66    0.48    1.00
  WSF200WS02003060     CONDUIT    545.43     0  02:34      1.63    0.12    0.34
  1                    CONDUIT    946.18     0  02:34      3.28    0.33    0.40
  2                    CONDUIT      4.61     0  02:31      1.95    0.01    0.07
  3                    CONDUIT    509.20     0  02:30      9.83    0.81    0.69
  4                    CONDUIT      0.00     0  00:00      0.00    0.00    0.00
  CC-Pump-1            PUMP       200.00     0  03:00              1.00
  CC-Pump-2            PUMP       200.00     0  02:01              1.00
  JK-Pump-1            PUMP       300.00     0  00:00              1.00
  JK-Pump-2            PUMP       300.00     0  02:16              1.00
  XR-Pump-1            PUMP        95.00     0  00:00              1.00
  XR-Pump-2            PUMP        95.00     0  02:00              1.00
  XR-Pump-3            PUMP        95.00     0  00:00              1.00
  XR-Pump-4            PUMP        95.00     0  02:00              1.00
  
  
  ***************************
  Flow Classification Summary
  ***************************
  
  -------------------------------------------------------------------------------------
                      Adjusted    ---------- Fraction of Time in Flow Class ---------- 
                       /Actual         Up    Down  Sub   Sup   Up    Down  Norm  Inlet 
  Conduit               Length    Dry  Dry   Dry   Crit  Crit  Crit  Crit  Ltd   Ctrl  
  -------------------------------------------------------------------------------------
  WS02003066WSF200        1.00   0.06  0.00  0.00  0.00  0.94  0.00  0.00  0.65  0.00
  WS02006287WS02006284    1.00   0.04  0.01  0.00  0.61  0.34  0.00  0.00  0.77  0.00
  WS02006284WS02006280    1.00   0.04  0.00  0.00  0.00  0.00  0.00  0.96  0.00  0.00
  WS02006280WS02006229    1.00   0.04  0.00  0.00  0.00  0.00  0.00  0.96  0.00  0.00
  WS02006229WS02006228    1.00   0.00  0.00  0.00  0.99  0.00  0.00  0.01  0.00  0.00
  WS02006256WS02006235    1.00   0.00  0.00  0.00  1.00  0.00  0.00  0.00  0.00  0.00
  WS02006253WS02006251    1.00   0.03  0.01  0.00  0.96  0.00  0.00  0.00  0.00  0.00
  WS02006252WS02006251    1.00   0.07  0.00  0.00  0.00  0.00  0.93  0.00  0.00  0.00
  WS02006251WS02006249    1.00   0.00  0.00  0.00  1.00  0.00  0.00  0.00  0.23  0.00
  WS02006249WS02006248    1.00   0.00  0.02  0.00  0.92  0.00  0.06  0.00  0.00  0.00
  WS02006248WS02006247    1.00   0.02  0.00  0.00  0.98  0.00  0.00  0.00  0.11  0.00
  WS02006247WS02006245    1.00   0.02  0.00  0.00  0.98  0.00  0.00  0.00  0.00  0.00
  WS02006245WS02006243    1.00   0.01  0.00  0.00  0.95  0.00  0.00  0.03  0.01  0.00
  WS02006243WS02006242    1.00   0.01  0.00  0.00  0.99  0.00  0.00  0.00  0.20  0.00
  WS02006242WS02006240    1.00   0.00  0.00  0.00  1.00  0.00  0.00  0.00  0.00  0.00
  WS02006240WS02006239    1.00   0.00  0.00  0.00  0.97  0.00  0.00  0.03  0.01  0.00
  WS02006239WS02006238    1.00   0.00  0.00  0.00  1.00  0.00  0.00  0.00  0.02  0.00
  WS02006238WS02006235    1.00   0.00  0.00  0.00  1.00  0.00  0.00  0.00  0.00  0.00
  WS02006235WS02006234    1.00   0.00  0.00  0.00  0.96  0.00  0.04  0.00  0.00  0.00
  WS02006234WS02006232    1.00   0.00  0.00  0.00  1.00  0.00  0.00  0.00  0.11  0.00
  WS02006232WS02006231    1.00   0.00  0.00  0.00  0.99  0.00  0.00  0.00  0.00  0.00
  WS02006231WS02006230    1.00   0.00  0.00  0.00  0.25  0.00  0.74  0.00  0.00  0.00
  WS02006230WS02006229    1.00   0.00  0.00  0.00  0.99  0.00  0.00  0.01  0.01  0.00
  WS02006228WS02006109    1.00   0.00  0.00  0.00  1.00  0.00  0.00  0.00  0.00  0.00
  WS02006116WS02004401    1.00   0.02  0.00  0.00  0.98  0.00  0.00  0.00  0.00  0.00
  WS02006115WS02006116    1.00   0.02  0.00  0.00  0.97  0.00  0.00  0.01  0.00  0.00
  WS02006113WS02006111    1.00   0.02  0.00  0.00  0.00  0.98  0.00  0.00  0.13  0.00
  WS02006112WS02006115    1.00   0.02  0.00  0.00  0.97  0.00  0.00  0.00  0.00  0.00
  WS02006111WS02006112    1.00   0.02  0.00  0.00  0.98  0.00  0.00  0.00  0.98  0.00
  WS02006110WS02006113    1.00   0.01  0.01  0.00  0.98  0.00  0.00  0.00  0.00  0.00
  WS02006109WS02006110    1.00   0.00  0.01  0.00  0.98  0.00  0.01  0.00  0.00  0.00
  WS02004411WS02004412    1.00   0.04  0.00  0.00  0.96  0.00  0.00  0.00  0.00  0.00
  WS02004401WS02004402    1.00   0.02  0.00  0.00  0.98  0.00  0.00  0.00  0.00  0.00
  WS02004413WS02003067    1.00   0.04  0.01  0.00  0.00  0.00  0.95  0.00  0.00  0.00
  WS02004412WS02004413    1.00   0.04  0.00  0.00  0.96  0.00  0.00  0.00  0.03  0.00
  WS02004410WS02004411    1.00   0.04  0.00  0.00  0.96  0.00  0.00  0.00  0.04  0.00
  WS02004409WS02004410    1.00   0.04  0.00  0.00  0.96  0.00  0.00  0.00  0.03  0.00
  WS02004407WS02004409    1.00   0.04  0.00  0.00  0.96  0.00  0.00  0.00  0.89  0.00
  WS02004406WS02004407    1.00   0.00  0.04  0.00  0.96  0.00  0.00  0.00  0.00  0.00
  WS02004405WS02004406    1.00   0.00  0.00  0.00  1.00  0.00  0.00  0.00  0.01  0.00
  WS02004404WS02004405    1.00   0.00  0.00  0.00  1.00  0.00  0.00  0.00  0.00  0.00
  WS02004403WS02004404    1.00   0.00  0.03  0.00  0.97  0.00  0.00  0.00  0.01  0.00
  WS02004402WS02004403    1.00   0.02  0.00  0.00  0.98  0.00  0.00  0.00  0.00  0.00
  WS02004139WS02001211    1.00   0.00  0.00  0.00  1.00  0.00  0.00  0.00  0.00  0.00
  WS02004138WS02004139    1.00   0.00  0.00  0.00  0.99  0.01  0.00  0.00  1.00  0.00
  WS02003067WS02003066    1.00   0.05  0.00  0.00  0.94  0.00  0.00  0.00  0.00  0.00
  WS02001213WS02003059    1.00   0.00  0.00  0.00  0.99  0.00  0.00  0.00  0.00  0.00
  WS02001212WS02001213    1.00   0.00  0.00  0.00  0.91  0.00  0.08  0.00  0.00  0.00
  WS02001211WS02001212    1.00   0.00  0.00  0.00  1.00  0.00  0.00  0.00  0.00  0.00
  WS02003072WS02003073    1.00   0.00  0.00  0.00  0.00  0.00  0.00  1.00  0.00  0.00
  WS02003069WS02003072    1.00   0.00  0.00  0.00  0.99  0.01  0.00  0.00  0.22  0.00
  WS02003060WS02003069    1.00   0.00  0.00  0.00  0.99  0.01  0.00  0.00  0.19  0.00
  WS02003059WS02003060    1.00   0.00  0.00  0.00  1.00  0.00  0.00  0.00  0.01  0.00
  HS02004901HS02004770    1.00   0.04  0.00  0.00  0.96  0.00  0.00  0.00  0.00  0.00
  HS02004876HS02004881    1.00   0.02  0.00  0.00  0.98  0.00  0.00  0.00  0.00  0.00
  HS02004870HS02004876    1.00   0.01  0.00  0.00  0.99  0.00  0.00  0.00  0.95  0.00
  HS02004842HS02004848    1.00   0.00  0.04  0.00  0.96  0.00  0.00  0.00  0.61  0.00
  HS02004837HS02004842    1.00   0.00  0.00  0.00  0.99  0.01  0.00  0.00  0.11  0.00
  HS02004830HS02004837    1.00   0.00  0.00  0.00  1.00  0.00  0.00  0.00  0.99  0.00
  HS02004824HS02004830    1.00   0.00  0.00  0.00  1.00  0.00  0.00  0.00  0.00  0.00
  HS02004817HS02004824    1.00   0.00  0.00  0.00  1.00  0.00  0.00  0.00  1.00  0.00
  HS02004770HS02004777    1.00   0.00  0.04  0.00  0.96  0.00  0.00  0.00  0.03  0.00
  HS02004799HS02004480    1.00   0.00  0.02  0.00  0.95  0.00  0.02  0.00  0.00  0.00
  HS02004792HS02004799    1.00   0.00  0.00  0.00  0.99  0.01  0.00  0.00  0.98  0.00
  HS02004788HS02004792    1.00   0.00  0.00  0.00  0.99  0.01  0.00  0.00  0.98  0.00
  HS02004785HS02004788    1.00   0.00  0.00  0.00  1.00  0.00  0.00  0.00  0.00  0.00
  HS02004777HS02004785    1.00   0.00  0.00  0.00  1.00  0.00  0.00  0.00  0.13  0.00
  HS02004480HS02004478    1.00   0.04  0.00  0.00  0.66  0.00  0.00  0.30  0.00  0.00
  HS02004479HS02004480    1.00   0.03  0.00  0.00  0.97  0.00  0.00  0.00  0.12  0.00
  HS02004862HS02004870    1.00   0.00  0.00  0.00  1.00  0.00  0.00  0.00  0.06  0.00
  HS02004848HS02004852    1.00   0.04  0.00  0.00  0.96  0.00  0.00  0.00  0.69  0.00
  HS02004856HS02004862    1.00   0.00  0.05  0.00  0.95  0.00  0.00  0.00  0.81  0.00
  HS02004852HS02004856    1.00   0.04  0.00  0.00  0.96  0.00  0.00  0.00  0.86  0.00
  HS02004802HS02004478    1.00   0.04  0.00  0.00  0.96  0.00  0.00  0.00  0.03  0.00
  HS02004478WS02006287    1.00   0.05  0.00  0.00  0.74  0.21  0.00  0.00  0.77  0.00
  HS02004817HS02004807    1.00   0.00  0.04  0.00  0.96  0.00  0.00  0.00  0.01  0.00
  HS02004807HS02004802    1.00   0.04  0.00  0.00  0.96  0.00  0.00  0.00  0.00  0.00
  YS02001759YS02001757    1.00   0.00  0.00  0.00  1.00  0.00  0.00  0.00  0.16  0.00
  YS02001762YS02001759    1.00   0.00  0.00  0.00  1.00  0.00  0.00  0.00  0.03  0.00
  YS02001765YS02001762    1.00   0.00  0.00  0.00  1.00  0.00  0.00  0.00  0.15  0.00
  YS02001770YS02001767    1.00   0.00  0.00  0.00  1.00  0.00  0.00  0.00  0.00  0.00
  YS02001774YS02001770    1.00   0.00  0.04  0.00  0.96  0.00  0.00  0.00  0.03  0.00
  YS02001779YS02001774    1.00   0.00  0.00  0.00  1.00  0.00  0.00  0.00  0.21  0.00
  YS02001649YS02001757    1.00   0.00  0.00  0.00  1.00  0.00  0.00  0.00  0.16  0.00
  YS02001767YS02001765    1.00   0.00  0.00  0.00  1.00  0.00  0.00  0.00  0.01  0.00
  YS02006561YS02001783    1.00   0.06  0.00  0.00  0.74  0.20  0.00  0.00  0.69  0.00
  YS02001783YS02001784    1.00   0.00  0.06  0.00  0.94  0.00  0.00  0.00  0.01  0.00
  YS02001784YS02001785    1.00   0.00  0.00  0.00  1.00  0.00  0.00  0.00  0.19  0.00
  YS02001788YS02001790    1.00   0.00  0.00  0.00  0.80  0.20  0.00  0.00  0.23  0.00
  YS02001790YS02001791    1.00   0.00  0.00  0.00  0.76  0.24  0.00  0.00  0.14  0.00
  YS02001791YS02001793    1.00   0.00  0.00  0.00  0.75  0.25  0.00  0.00  0.00  0.00
  YS02001910YS02001907    1.00   0.00  0.00  0.00  0.98  0.00  0.00  0.02  0.12  0.00
  YS02001786YS02001788    1.00   0.00  0.00  0.00  0.80  0.20  0.00  0.00  0.00  0.00
  YS02001915YS02001910    1.00   0.00  0.00  0.00  0.99  0.01  0.00  0.00  0.18  0.00
  YS02001918YS02001915    1.00   0.00  0.01  0.00  0.98  0.01  0.00  0.00  0.69  0.00
  YS02001923YS02001920    1.00   0.00  0.00  0.00  1.00  0.00  0.00  0.00  1.00  0.00
  YS02001926YS02001923    1.00   0.00  0.03  0.00  0.00  0.00  0.97  0.00  0.00  0.00
  YS02001929YS02001926    1.00   0.00  0.04  0.00  0.96  0.00  0.00  0.00  0.87  0.00
  YS02001920YS02001918    1.00   0.00  0.01  0.00  0.99  0.00  0.00  0.00  0.00  0.00
  YS02001629YS02163301    1.00   0.05  0.00  0.00  0.95  0.00  0.00  0.00  0.00  0.00
  YS02001619YS02001622    1.00   0.04  0.00  0.00  0.96  0.00  0.00  0.00  0.00  0.00
  YS02001622YS02001625    1.00   0.04  0.00  0.00  0.96  0.00  0.00  0.00  0.07  0.00
  YS02001625YS02001629    1.00   0.04  0.01  0.00  0.93  0.00  0.02  0.00  0.00  0.00
  YS02163301YS02001633    1.00   0.00  0.05  0.00  0.95  0.00  0.00  0.00  0.00  0.00
  YS02163601YS02164001    1.00   0.00  0.03  0.00  0.97  0.00  0.00  0.00  0.00  0.00
  YS02164001YS02001641    1.00   0.01  0.03  0.00  0.97  0.00  0.00  0.00  0.06  0.00
  YS02001641YS02001644    1.00   0.00  0.01  0.00  0.99  0.00  0.00  0.00  0.00  0.00
  YS02001647YS02001649    1.00   0.00  0.05  0.00  0.95  0.00  0.00  0.00  0.01  0.00
  YS02006553YS02006556    1.00   0.01  0.00  0.00  0.99  0.00  0.00  0.00  0.03  0.00
  YS02006556YS02006558    1.00   0.00  0.00  0.00  1.00  0.00  0.00  0.00  0.00  0.00
  YSB6556YSB1171          1.00   0.03  0.01  0.00  0.96  0.00  0.00  0.00  0.00  0.00
  YS02001907YS02006553    1.00   0.00  0.02  0.00  0.98  0.00  0.00  0.00  0.00  0.00
  YS02006558YS02006561    1.00   0.06  0.00  0.00  0.00  0.94  0.00  0.00  0.60  0.00
  YS02001633YS02163601    1.00   0.00  0.01  0.00  0.99  0.00  0.00  0.00  0.15  0.00
  YS02001644YS02001647    1.00   0.00  0.05  0.00  0.95  0.00  0.00  0.00  0.00  0.00
  YS02001745YS02001748    1.00   0.00  0.00  0.00  0.86  0.01  0.00  0.12  0.07  0.00
  YS02001748YS02001751    1.00   0.00  0.00  0.00  0.97  0.03  0.00  0.00  0.16  0.00
  YS02001751YS02001754    1.00   0.00  0.00  0.00  0.94  0.00  0.00  0.06  0.02  0.00
  YS02001754YS02001757    1.00   0.00  0.00  0.00  0.99  0.01  0.00  0.00  0.20  0.00
  YS02001882YS02001884    1.00   0.05  0.00  0.00  0.95  0.00  0.00  0.00  0.00  0.00
  YS02001884YS02001887    1.00   0.03  0.01  0.00  0.96  0.00  0.00  0.00  0.00  0.00
  YS02001890YS02001895    1.00   0.00  0.05  0.00  0.95  0.00  0.00  0.00  0.00  0.00
  YS02001895YS02001898    1.00   0.05  0.00  0.00  0.94  0.00  0.01  0.00  0.00  0.00
  YS02001898YS02001901    1.00   0.05  0.00  0.00  0.95  0.00  0.00  0.00  0.03  0.00
  YS02001901YS02001904    1.00   0.05  0.00  0.00  0.95  0.00  0.00  0.00  0.00  0.00
  YS02001904YS02001907    1.00   0.00  0.05  0.00  0.95  0.00  0.00  0.00  0.00  0.00
  YS02001887YS02001890    1.00   0.00  0.00  0.00  0.97  0.00  0.02  0.00  0.00  0.00
  YS02001652YS02001649    1.00   0.00  0.00  0.00  1.00  0.00  0.00  0.00  0.18  0.00
  YS02001655YS02001652    1.00   0.00  0.00  0.00  0.94  0.00  0.00  0.06  0.02  0.00
  YS02001658YS02001655    1.00   0.00  0.04  0.00  0.93  0.03  0.00  0.00  0.12  0.00
  YS02001661YS02001658    1.00   0.04  0.00  0.00  0.86  0.10  0.00  0.00  0.16  0.00
  YS02001664YS02001661    1.00   0.04  0.00  0.00  0.82  0.13  0.00  0.00  0.30  0.00
  YSB1154YSB6556          1.00   0.04  0.00  0.00  0.96  0.00  0.00  0.00  0.02  0.00
  YSB1174YSB1171          1.00   0.03  0.01  0.00  0.96  0.00  0.00  0.00  0.00  0.00
  YSB1171HS02004479       1.00   0.03  0.00  0.00  0.97  0.00  0.00  0.00  0.10  0.00
  HS02004881HS02006253    1.00   0.03  0.00  0.00  0.91  0.00  0.00  0.05  0.75  0.00
  YS02001793JiankangQianchi    1.00   0.00  0.00  0.00  0.82  0.17  0.00  0.00  0.06  0.00
  YS02001757CaochengTiaoxuchi    1.00   0.00  0.07  0.00  0.93  0.00  0.00  0.00  0.00  0.00
  WSF200WS02003060        1.00   0.00  0.06  0.00  0.94  0.00  0.00  0.00  0.61  0.00
  1                       1.00   0.00  0.00  0.00  0.00  1.00  0.00  0.00  0.61  0.00
  2                       1.00   0.95  0.00  0.00  0.00  0.05  0.00  0.00  0.01  0.00
  3                       1.00   0.79  0.00  0.00  0.00  0.21  0.00  0.00  0.84  0.00
  4                       1.00   1.00  0.00  0.00  0.00  0.00  0.00  0.00  0.00  0.00
  
  
  *************************
  Conduit Surcharge Summary
  *************************
  
  ----------------------------------------------------------------------------
                                                           Hours        Hours 
                         --------- Hours Full --------   Above Full   Capacity
  Conduit                Both Ends  Upstream  Dnstream   Normal Flow   Limited
  ----------------------------------------------------------------------------
  WS02006229WS02006228        1.10      1.12      1.10      1.45         1.10
  WS02006256WS02006235        6.10      6.10      6.86      0.75         0.01
  WS02006249WS02006248        0.01      0.01      0.01      5.82         0.01
  WS02006247WS02006245        0.01      0.01      0.01      5.84         0.01
  WS02006243WS02006242        0.01      0.01      0.16      0.01         0.01
  WS02006242WS02006240        0.01      0.01      0.43      0.13         0.01
  WS02006240WS02006239        0.01      0.01      0.16      0.01         0.01
  WS02006239WS02006238        0.55      0.55      0.72      0.01         0.01
  WS02006238WS02006235        0.69      0.69      0.79      0.01         0.01
  WS02006235WS02006234        0.21      0.21      0.60      6.11         0.01
  WS02006234WS02006232        0.43      0.43      0.88      0.01         0.01
  WS02006232WS02006231        0.01      0.01      0.88      0.01         0.01
  WS02006231WS02006230        0.01      0.01      0.01      6.11         0.01
  WS02006230WS02006229        1.22      1.28      1.22      6.22         1.22
  WS02006228WS02006109        1.11      1.17      1.11      2.94         1.11
  WS02006112WS02006115        0.01      0.01      0.81      0.01         0.01
  WS02006111WS02006112        0.01      0.01      1.54      0.01         0.01
  WS02006110WS02006113        0.01      0.01      1.14      0.01         0.01
  WS02006109WS02006110        0.30      0.30      1.17      0.30         0.01
  WS02004405WS02004406        0.01      0.01      0.01      0.74         0.01
  WS02004404WS02004405        0.01      0.01      0.01      5.99         0.01
  WS02003072WS02003073        0.01      0.01      0.01      5.80         0.01
  YS02001759YS02001757        5.53      5.53      5.64      0.01         0.01
  YS02001762YS02001759        5.50      5.50      5.53      0.01         0.01
  YS02001765YS02001762        5.47      5.47      5.50      0.01         0.01
  YS02001770YS02001767        5.43      5.43      5.43      0.01         0.54
  YS02001774YS02001770        5.41      5.41      5.49      0.01         0.01
  YS02001779YS02001774        5.13      5.13      5.49      0.01         0.01
  YS02001649YS02001757        5.51      5.51      5.64      0.01         0.01
  YS02001767YS02001765        5.43      5.43      5.47      0.01         0.01
  YS02006561YS02001783        0.01      0.01      0.12      0.01         0.01
  YS02001783YS02001784        0.12      0.12      0.24      0.01         0.01
  YS02001784YS02001785        0.14      0.24      0.14      1.11         0.12
  YS02001788YS02001790        0.08      0.08      4.86      0.01         0.01
  YS02001790YS02001791        4.86      4.86      4.87      0.01         0.01
  YS02001791YS02001793        4.87      4.87      4.90      0.01         0.01
  YS02001910YS02001907        0.01      0.01      0.27      0.01         0.01
  YS02001786YS02001788        0.08      0.14      0.08      0.58         0.07
  YS02001629YS02163301        5.40      5.40      5.42      0.01         0.01
  YS02001619YS02001622        4.70      4.70      4.81      0.01         0.03
  YS02001622YS02001625        4.81      4.81      5.31      0.01         0.01
  YS02001625YS02001629        4.72      4.72      5.31      0.01         0.01
  YS02163301YS02001633        5.42      5.42      5.47      0.01         0.01
  YS02163601YS02164001        5.47      5.47      5.51      0.01         0.01
  YS02164001YS02001641        5.47      5.47      5.48      0.01         0.02
  YS02001641YS02001644        5.48      5.48      5.48      0.01         0.69
  YS02001647YS02001649        5.27      5.27      5.51      0.01         0.01
  YS02006553YS02006556        0.01      0.01      0.40      0.01         0.01
  YS02006556YS02006558        0.04      0.04      0.51      0.01         0.01
  YS02001907YS02006553        1.12      1.12      1.35      0.01         0.01
  YS02006558YS02006561        0.01      0.01      0.01      0.94         0.01
  YS02001633YS02163601        5.45      5.45      5.51      0.01         0.01
  YS02001644YS02001647        5.27      5.27      5.48      0.01         0.01
  YS02001745YS02001748        0.01      0.01      4.32      0.01         0.01
  YS02001748YS02001751        4.43      4.43      4.76      0.01         0.01
  YS02001751YS02001754        4.76      4.76      5.18      0.01         0.01
  YS02001754YS02001757        5.25      5.25      5.64      0.01         0.01
  YS02001904YS02001907        0.01      0.01      0.43      0.01         0.01
  YS02001652YS02001649        5.29      5.29      5.51      0.01         0.01
  YS02001655YS02001652        4.78      4.78      5.24      0.01         0.01
  YS02001658YS02001655        4.33      4.33      4.78      0.01         0.01
  YS02001661YS02001658        0.06      0.06      4.33      0.01         0.01
  YS02001664YS02001661        0.01      0.01      0.70      0.01         0.01
  YS02001793JiankangQianchi        4.89      4.89      5.29      0.01         0.01
  YS02001757CaochengTiaoxuchi        4.42      4.42      5.64      0.01         0.01
  
  
  ***************
  Pumping Summary
  ***************
  
  ---------------------------------------------------------------------------------------------------------
                                                  Min       Avg       Max     Total     Power    % Time Off
                        Percent   Number of      Flow      Flow      Flow    Volume     Usage    Pump Curve
  Pump                 Utilized   Start-Ups       LPS       LPS       LPS  10^6 ltr     Kw-hr    Low   High
  ---------------------------------------------------------------------------------------------------------
  CC-Pump-1               68.08           2      0.00    189.45    200.00     3.660      3.60    0.0    3.6
  CC-Pump-2               13.90           2      0.00    149.22    200.00     0.565      2.23    0.0   71.7
  JK-Pump-1               38.30           1      0.00    183.21    300.00     1.036     17.69    0.0    0.0
  JK-Pump-2               14.89           1      0.00    205.86    300.00     0.816     14.14    0.0    0.0
  XR-Pump-1              100.00           1      0.00     95.00     95.00     2.679     20.68    0.0    0.0
  XR-Pump-2               14.89           2      0.00     71.41     95.00     0.285      3.01    0.0    0.0
  XR-Pump-3              100.00           1      0.00     95.00     95.00     2.679     20.68    0.0    0.0
  XR-Pump-4               76.59           1      0.00     94.14     95.00     2.023     13.49    0.0    0.0
  

  Analysis begun on:  Tue Dec 21 01:29:55 2021
  Analysis ended on:  Tue Dec 21 01:29:59 2021
  Total elapsed time: 00:00:04