
  EPA STORM WATER MANAGEMENT MODEL - VERSION 5.1 (Build 5.3.0.dev0)
  --------------------------------------------------------------

  WARNING 04: minimum elevation drop used for Conduit WS02004404WS02004405
  WARNING 03: negative offset ignored for Link YS02001904YS02001907
  
  *********************************************************
  NOTE: The summary statistics displayed in this report are
  based on results found at every computational time step,  
  not just on results from each reporting time step.
  *********************************************************
  
  ****************
  Analysis Options
  ****************
  Flow Units ............... LPS
  Process Models:
    Rainfall/Runoff ........ YES
    RDII ................... NO
    Snowmelt ............... NO
    Groundwater ............ NO
    Flow Routing ........... YES
    Ponding Allowed ........ NO
    Water Quality .......... NO
  Infiltration Method ...... HORTON
  Flow Routing Method ...... DYNWAVE
  Surcharge Method ......... EXTRAN
  Starting Date ............ 08/28/2015 08:00:00
  Ending Date .............. 08/28/2015 15:50:00
  Antecedent Dry Days ...... 8.0
  Report Time Step ......... 00:01:00
  Wet Time Step ............ 00:01:00
  Dry Time Step ............ 00:01:00
  Routing Time Step ........ 5.00 sec
  Variable Time Step ....... YES
  Maximum Trials ........... 8
  Number of Threads ........ 4
  Head Tolerance ........... 0.001500 m
  
  
  **************************        Volume         Depth
  Runoff Quantity Continuity     hectare-m            mm
  **************************     ---------       -------
  Total Precipitation ......         3.868         8.469
  Evaporation Loss .........         0.000         0.000
  Infiltration Loss ........         0.985         2.157
  Surface Runoff ...........         1.916         4.194
  Final Storage ............         0.968         2.119
  Continuity Error (%) .....        -0.017
  
  
  **************************        Volume        Volume
  Flow Routing Continuity        hectare-m      10^6 ltr
  **************************     ---------     ---------
  Dry Weather Inflow .......         0.616         6.165
  Wet Weather Inflow .......         1.915        19.148
  Groundwater Inflow .......         0.000         0.000
  RDII Inflow ..............         0.000         0.000
  External Inflow ..........         0.102         1.024
  External Outflow .........         1.459        14.587
  Flooding Loss ............         0.656         6.563
  Evaporation Loss .........         0.000         0.000
  Exfiltration Loss ........         0.000         0.000
  Initial Stored Volume ....         0.076         0.761
  Final Stored Volume ......         0.607         6.065
  Continuity Error (%) .....        -0.437
  
  
  *************************
  Highest Continuity Errors
  *************************
  Node HS02004842 (20.90%)
  Node YS02001884 (14.07%)
  Node YS02001774 (7.76%)
  Node YSB1171 (4.66%)
  Node HS02004817 (3.83%)
  
  
  ***************************
  Time-Step Critical Elements
  ***************************
  Link 3 (82.74%)
  Link YS02001793JiankangQianchi (9.85%)
  Link WS02006280WS02006229 (2.04%)
  
  
  ********************************
  Highest Flow Instability Indexes
  ********************************
  Link WS02006113WS02006111 (59)
  Link YS02163301YS02001633 (43)
  Link YS02001629YS02163301 (43)
  Link YS02001619YS02001622 (43)
  Link YS02163601YS02164001 (42)
  
  
  *************************
  Routing Time Step Summary
  *************************
  Minimum Time Step           :     0.11 sec
  Average Time Step           :     1.17 sec
  Maximum Time Step           :     5.00 sec
  Percent in Steady State     :     0.00
  Average Iterations per Step :     4.35
  Percent Not Converging      :    18.50
  
  
  ***************************
  Subcatchment Runoff Summary
  ***************************
  
  ------------------------------------------------------------------------------------------------------------------------------
                            Total      Total      Total      Total     Imperv       Perv      Total       Total     Peak  Runoff
                           Precip      Runon       Evap      Infil     Runoff     Runoff     Runoff      Runoff   Runoff   Coeff
  Subcatchment                 mm         mm         mm         mm         mm         mm         mm    10^6 ltr      LPS
  ------------------------------------------------------------------------------------------------------------------------------
  sub0                       8.47       0.00       0.00       0.59       6.61       0.00       6.61        0.01     1.03   0.781
  sub1                       8.47       0.00       0.00       0.93       6.28       0.00       6.28        0.04     7.43   0.741
  sub2                       8.47       0.00       0.00       3.13       4.43       0.00       4.43        0.04     7.08   0.523
  sub3                       8.47       0.00       0.00       3.13       4.39       0.00       4.39        0.10    15.91   0.518
  sub4                       8.47       0.00       0.00       0.93       6.13       0.00       6.13        0.13    19.23   0.724
  sub5                       8.47       0.00       0.00       0.59       6.56       0.00       6.56        0.07    13.22   0.775
  sub7                       8.47       0.00       0.00       0.76       6.45       0.00       6.45        0.02     4.04   0.762
  sub8                       8.47       0.00       0.00       0.76       6.44       0.00       6.44        0.04     7.54   0.761
  sub9                       8.47       0.00       0.00       0.76       6.44       0.00       6.44        0.03     5.65   0.760
  sub10                      8.47       0.00       0.00       0.68       6.50       0.00       6.50        0.07    12.87   0.767
  sub11                      8.47       0.00       0.00       0.68       6.52       0.00       6.52        0.08    13.93   0.769
  sub12                      8.47       0.00       0.00       1.10       6.18       0.00       6.18        0.05    10.23   0.730
  sub14                      8.47       0.00       0.00       0.76       6.44       0.00       6.44        0.06    11.15   0.760
  sub15                      8.47       0.00       0.00       2.54       4.95       0.00       4.95        0.09    15.40   0.584
  sub16                      8.47       0.00       0.00       2.79       4.76       0.00       4.76        0.05     9.37   0.561
  sub17                      8.47       0.00       0.00       2.71       4.82       0.00       4.82        0.04     7.75   0.570
  sub22                      8.47       0.00       0.00       3.64       4.04       0.00       4.04        0.26    47.08   0.477
  sub23                      8.47       0.00       0.00       3.13       4.46       0.00       4.46        0.21    39.46   0.527
  sub60                      8.47       0.00       0.00       1.02       4.75       0.00       4.75        1.44   149.28   0.561
  sub61                      8.47       0.00       0.00       1.44       4.95       0.00       4.95        1.53   180.35   0.585
  sub62                      8.47       0.00       0.00       0.68       5.35       0.00       5.35        1.64   187.08   0.631
  sub63                      8.47       0.00       0.00       2.46       4.37       0.00       4.37        1.32   164.01   0.516
  sub64                      8.47       0.00       0.00       1.27       4.55       0.00       4.55        1.38   141.99   0.537
  sub65                      8.47       0.00       0.00       1.10       4.62       0.00       4.62        1.42   144.28   0.545
  sub66                      8.47       0.00       0.00       2.46       3.94       0.00       3.94        1.21   129.20   0.465
  sub67                      8.47       0.00       0.00       0.68       5.75       0.00       5.75        1.78   226.25   0.679
  sub68                      8.47       0.00       0.00       1.19       5.24       0.00       5.24        1.61   196.27   0.618
  sub69                      8.47       0.00       0.00       1.27       5.53       0.00       5.53        1.29   176.57   0.653
  sub70                      8.47       5.64       0.00       4.80       7.11       0.00       7.11        1.63   167.69   0.504
  sub71                      8.47       0.00       0.00       0.68       5.16       0.00       5.16        1.22   132.38   0.610
  sub72                      8.47       0.00       0.00       0.59       3.87       0.00       3.87        0.79    64.98   0.457
  sub73                      8.47       6.92       0.00       5.23       7.51       0.00       7.51        1.76   149.38   0.488
  sub74                      8.47       0.00       0.00       6.35       1.66       0.00       1.66        0.66    93.55   0.196
  
  
  ******************
  Node Depth Summary
  ******************
  
  ---------------------------------------------------------------------------------
                                 Average  Maximum  Maximum  Time of Max    Reported
                                   Depth    Depth      HGL   Occurrence   Max Depth
  Node                 Type       Meters   Meters   Meters  days hr:min      Meters
  ---------------------------------------------------------------------------------
  WS02001211           JUNCTION     0.67     0.71     5.54     0  02:42        0.71
  WS02001212           JUNCTION     0.39     0.42     5.49     0  02:41        0.42
  WS02001213           JUNCTION     0.60     0.67     5.43     0  02:40        0.67
  WS02003069           JUNCTION     0.40     0.49     5.07     0  02:39        0.49
  WS02003072           JUNCTION     0.46     0.56     4.93     0  02:40        0.56
  WS02003073           JUNCTION     0.28     0.34     4.40     0  02:40        0.34
  WS02003060           JUNCTION     0.36     0.43     5.37     0  02:38        0.43
  WS02003066           JUNCTION     0.19     0.26     5.82     0  02:37        0.26
  WS02003059           JUNCTION     0.66     0.72     5.41     0  02:39        0.72
  WS02003067           JUNCTION     0.49     0.64     5.96     0  02:37        0.64
  WS02004401           JUNCTION     0.56     0.74     6.74     0  02:33        0.74
  WS02004402           JUNCTION     0.60     0.77     6.73     0  02:33        0.77
  WS02004403           JUNCTION     0.62     0.79     6.72     0  02:33        0.79
  WS02004404           JUNCTION     0.70     0.86     6.71     0  02:33        0.86
  WS02004406           JUNCTION     0.71     0.87     6.70     0  02:33        0.87
  WS02004409           JUNCTION     0.38     0.56     6.33     0  02:35        0.56
  WS02004410           JUNCTION     0.40     0.58     6.30     0  02:36        0.58
  WS02004411           JUNCTION     0.42     0.59     6.27     0  02:36        0.59
  WS02004412           JUNCTION     0.45     0.61     6.25     0  02:36        0.61
  WS02004413           JUNCTION     0.60     0.77     6.24     0  02:36        0.77
  WS02004405           JUNCTION     0.70     0.86     6.71     0  02:33        0.86
  WS02006109           JUNCTION     0.62     0.81     7.42     0  02:30        0.81
  WS02006110           JUNCTION     0.63     0.80     7.38     0  02:30        0.80
  WS02006111           JUNCTION     0.17     0.24     6.95     0  02:30        0.24
  WS02006112           JUNCTION     0.72     0.91     6.79     0  02:32        0.91
  WS02006113           JUNCTION     0.26     0.38     7.27     0  02:30        0.38
  WS02006115           JUNCTION     0.45     0.63     6.76     0  02:33        0.63
  WS02006116           JUNCTION     0.53     0.71     6.75     0  02:33        0.71
  WS02006230           JUNCTION     0.54     0.75     7.49     0  02:30        0.75
  WS02006231           JUNCTION     0.33     0.42     7.54     0  02:31        0.42
  WS02006232           JUNCTION     0.45     0.53     7.57     0  02:32        0.53
  WS02006234           JUNCTION     0.34     0.43     7.58     0  02:32        0.43
  WS02006235           JUNCTION     0.37     0.44     7.61     0  02:33        0.44
  WS02006238           JUNCTION     0.39     0.46     7.61     0  02:33        0.46
  WS02006240           JUNCTION     0.25     0.32     7.61     0  02:33        0.32
  WS02006242           JUNCTION     0.27     0.35     7.62     0  02:33        0.35
  WS02006243           JUNCTION     0.13     0.20     7.62     0  02:32        0.20
  WS02006245           JUNCTION     0.08     0.17     7.66     0  02:30        0.17
  WS02006247           JUNCTION     0.09     0.19     7.69     0  02:29        0.19
  WS02006248           JUNCTION     0.06     0.14     7.73     0  02:28        0.14
  WS02006249           JUNCTION     0.10     0.19     7.79     0  02:27        0.19
  WS02006239           JUNCTION     0.33     0.40     7.61     0  02:33        0.40
  WS02006251           JUNCTION     0.07     0.16     7.83     0  02:27        0.16
  WS02006252           JUNCTION     0.00     0.00     8.24     0  00:00        0.00
  WS02006253           JUNCTION     0.12     0.23     7.87     0  02:26        0.23
  WS02006256           JUNCTION     1.02     1.15     8.09     0  00:00        1.11
  WS02004138           JUNCTION     0.16     0.17     7.42     0  00:20        0.17
  WS02004407           JUNCTION     0.17     0.25     6.56     0  02:34        0.25
  WS02006228           JUNCTION     0.61     0.81     7.46     0  02:29        0.81
  WS02006229           JUNCTION     0.57     0.78     7.48     0  02:29        0.78
  WS02006280           JUNCTION     0.07     0.14     8.41     0  02:27        0.14
  WS02006284           JUNCTION     0.37     0.48     8.88     0  02:27        0.48
  WS02006287           JUNCTION     0.10     0.21     9.16     0  02:27        0.21
  WSF200               JUNCTION     0.17     0.25     5.48     0  02:37        0.25
  HS02004901           JUNCTION     0.13     0.22    10.04     0  02:25        0.22
  HS02004881           JUNCTION     0.01     0.02     9.05     0  02:26        0.02
  HS02004876           JUNCTION     0.05     0.10     9.13     0  02:25        0.10
  HS02004870           JUNCTION     0.02     0.04     9.33     0  02:26        0.04
  HS02004862           JUNCTION     0.02     0.05     9.43     0  02:27        0.05
  HS02004856           JUNCTION     0.08     0.11     9.53     0  02:26        0.11
  HS02004852           JUNCTION     0.01     0.03     9.54     0  02:27        0.03
  HS02004848           JUNCTION     0.01     0.03     9.63     0  02:26        0.03
  HS02004842           JUNCTION     0.33     0.36     9.63     0  02:26        0.36
  HS02004837           JUNCTION     0.03     0.05     9.63     0  02:26        0.05
  HS02004830           JUNCTION     0.04     0.06     9.53     0  02:26        0.06
  HS02004824           JUNCTION     0.02     0.04     9.45     0  02:27        0.04
  HS02004817           JUNCTION     0.43     0.53     9.37     0  02:27        0.53
  HS02004807           JUNCTION     0.13     0.20     9.37     0  02:27        0.20
  HS02004802           JUNCTION     0.16     0.24     9.37     0  02:27        0.24
  HS02004799           JUNCTION     0.13     0.25     9.46     0  02:25        0.25
  HS02004792           JUNCTION     0.04     0.09     9.62     0  02:25        0.09
  HS02004788           JUNCTION     0.03     0.07     9.97     0  02:26        0.07
  HS02004785           JUNCTION     0.05     0.13    10.03     0  02:25        0.13
  HS02004777           JUNCTION     0.15     0.24    10.04     0  02:25        0.24
  HS02004770           JUNCTION     0.12     0.21    10.04     0  02:25        0.21
  HS02004480           JUNCTION     0.09     0.19     9.43     0  02:26        0.19
  HS02004479           JUNCTION     0.12     0.23     9.43     0  02:25        0.23
  HS02004478           JUNCTION     0.06     0.12     9.35     0  02:26        0.12
  YS02001745           JUNCTION     0.60     0.87     8.39     0  03:36        0.87
  YS02001748           JUNCTION     0.96     1.32     8.40     0  03:33        1.31
  YS02001751           JUNCTION     1.14     1.58     8.46     0  02:51        1.52
  YS02001754           JUNCTION     1.38     1.81     8.42     0  03:33        1.80
  YS02001762           JUNCTION     1.58     2.02     8.42     0  03:32        2.01
  YS02001765           JUNCTION     1.53     1.97     8.42     0  03:35        1.95
  YS02001767           JUNCTION     1.50     1.93     8.42     0  03:32        1.90
  YS02001770           JUNCTION     1.49     1.90     8.40     0  03:36        1.89
  YS02001774           JUNCTION     1.56     1.97     8.39     0  03:25        1.96
  YS02001779           JUNCTION     1.31     1.68     8.37     0  03:16        1.68
  YS02001882           JUNCTION     0.38     0.64     7.36     0  03:03        0.64
  YS02001884           JUNCTION     0.48     0.74     7.35     0  03:03        0.74
  YS02001759           JUNCTION     1.61     2.06     8.43     0  03:34        2.05
  YS02001887           JUNCTION     0.55     0.81     7.35     0  03:02        0.81
  YS02001890           JUNCTION     0.58     0.84     7.35     0  03:03        0.84
  YS02001898           JUNCTION     0.35     0.60     7.34     0  03:04        0.60
  YS02001901           JUNCTION     0.47     0.73     7.34     0  03:04        0.73
  YS02001904           JUNCTION     0.45     0.70     7.33     0  03:03        0.70
  YS02001907           JUNCTION     0.77     1.06     7.35     0  02:51        1.04
  YS02001910           JUNCTION     0.56     0.83     7.34     0  03:04        0.82
  YS02001915           JUNCTION     0.37     0.62     7.34     0  03:03        0.62
  YS02001918           JUNCTION     0.12     0.26     7.33     0  03:04        0.26
  YS02001619           JUNCTION     1.10     1.61     8.54     0  02:57        1.59
  YS02001629           JUNCTION     1.44     1.85     8.40     0  03:00        1.82
  YS02001641           JUNCTION     1.54     1.94     8.37     0  03:15        1.92
  YS02001644           JUNCTION     1.55     1.92     8.35     0  03:12        1.92
  YS02001652           JUNCTION     1.39     2.15     8.75     0  02:49        1.88
  YS02001655           JUNCTION     1.16     2.20     9.05     0  02:49        1.66
  YS02001920           JUNCTION     0.22     0.33     7.34     0  03:05        0.33
  YS02001923           JUNCTION     0.08     0.12     7.38     0  03:02        0.12
  YS02001926           JUNCTION     0.17     0.23     7.67     0  03:01        0.23
  YS02001929           JUNCTION     0.09     0.12     7.81     0  03:01        0.12
  YS02001658           JUNCTION     0.91     2.30     9.44     0  02:59        1.42
  YS02001661           JUNCTION     0.70     2.04     9.45     0  03:19        1.27
  YS02001664           JUNCTION     0.31     0.57     8.49     0  03:18        0.56
  YS02001622           JUNCTION     1.12     1.62     8.52     0  02:57        1.55
  YS02001633           JUNCTION     1.53     1.94     8.40     0  03:16        1.92
  YS02001649           JUNCTION     1.59     2.05     8.44     0  03:16        2.05
  YS02001757           JUNCTION     1.71     2.17     8.43     0  03:37        2.16
  YS02001895           JUNCTION     0.35     0.59     7.34     0  03:02        0.59
  YS02001625           JUNCTION     1.40     1.78     8.38     0  02:59        1.78
  YS02163301           JUNCTION     1.47     1.90     8.42     0  03:00        1.86
  YS02163601           JUNCTION     1.58     1.99     8.39     0  03:16        1.97
  YS02164001           JUNCTION     1.52     1.92     8.38     0  03:16        1.91
  YS02001647           JUNCTION     1.38     1.80     8.41     0  03:17        1.79
  YSB1154              JUNCTION     0.26     0.38     9.43     0  02:26        0.38
  YSB6556              JUNCTION     0.15     0.26     9.43     0  02:26        0.26
  YSB1174              JUNCTION     0.21     0.32     9.43     0  02:26        0.32
  YSB1171              JUNCTION     0.41     0.53     9.43     0  02:25        0.53
  YS02006553           JUNCTION     0.77     1.06     7.34     0  02:52        1.05
  YS02006561           JUNCTION     0.19     0.43     7.09     0  02:56        0.43
  YS02006556           JUNCTION     0.75     1.03     7.34     0  03:04        1.01
  YS02006558           JUNCTION     0.79     1.07     7.34     0  03:03        1.05
  YS02001783           JUNCTION     0.40     1.50     7.64     0  02:56        0.98
  YS02001784           JUNCTION     0.43     1.56     7.63     0  02:56        1.00
  YS02001786           JUNCTION     0.40     1.35     7.38     0  02:56        0.95
  YS02001788           JUNCTION     0.36     1.35     7.33     0  02:56        0.91
  YS02001790           JUNCTION     0.50     1.58     7.22     0  02:54        1.14
  YS02001791           JUNCTION     0.51     1.36     6.83     0  02:56        1.22
  YS02001793           JUNCTION     0.74     2.51     7.34     0  02:50        1.79
  WS02004139           JUNCTION     0.61     0.65     5.56     0  02:42        0.65
  WSC                  OUTFALL      0.28     0.34     1.01     0  02:41        0.34
  3                    OUTFALL      0.08     0.13     6.13     0  00:00        0.11
  4                    OUTFALL      0.00     0.00     7.00     0  00:00        0.00
  5                    OUTFALL      0.00     0.00     5.00     0  00:00        0.00
  JK-storage           STORAGE      2.98     5.80     6.60     0  02:56        5.80
  CC-storage           STORAGE      0.97     1.39     8.39     0  03:34        1.39
  XR-storage           STORAGE      6.99     7.72     5.72     0  02:59        7.72
  
  
  *******************
  Node Inflow Summary
  *******************
  
  -------------------------------------------------------------------------------------------------
                                  Maximum  Maximum                  Lateral       Total        Flow
                                  Lateral    Total  Time of Max      Inflow      Inflow     Balance
                                   Inflow   Inflow   Occurrence      Volume      Volume       Error
  Node                 Type           LPS      LPS  days hr:min    10^6 ltr    10^6 ltr     Percent
  -------------------------------------------------------------------------------------------------
  WS02001211           JUNCTION      7.35   293.14     0  03:23       0.207        7.68       0.522
  WS02001212           JUNCTION      0.00   293.71     0  03:23           0        7.64       0.254
  WS02001213           JUNCTION      0.00   294.26     0  03:22           0        7.62       0.287
  WS02003069           JUNCTION      0.32   697.14     0  02:39     0.00902        12.4       0.182
  WS02003072           JUNCTION      0.00   697.13     0  02:39           0        12.4       0.236
  WS02003073           JUNCTION      1.82   698.95     0  02:40      0.0514        12.4       0.256
  WS02003060           JUNCTION     16.53   696.81     0  02:38       0.466        12.5       0.175
  WS02003066           JUNCTION      0.00   388.37     0  02:37           0        4.43       0.058
  WS02003059           JUNCTION      0.00   295.34     0  03:24           0         7.6       0.506
  WS02003067           JUNCTION      0.00   388.36     0  02:37           0        4.43       0.138
  WS02004401           JUNCTION      0.00   389.43     0  02:32           0        4.58       0.314
  WS02004402           JUNCTION      0.00   389.23     0  02:32           0        4.57       0.309
  WS02004403           JUNCTION      0.00   389.12     0  02:32           0        4.55       0.292
  WS02004404           JUNCTION      0.16   389.21     0  02:33     0.00457        4.55       0.233
  WS02004406           JUNCTION      0.00   389.19     0  02:33           0        4.52       0.572
  WS02004409           JUNCTION      0.00   389.17     0  02:34           0        4.49       0.173
  WS02004410           JUNCTION      0.00   388.90     0  02:34           0        4.48       0.215
  WS02004411           JUNCTION      0.00   388.66     0  02:35           0        4.47       0.237
  WS02004412           JUNCTION      0.00   388.51     0  02:36           0        4.46       0.279
  WS02004413           JUNCTION      0.00   388.40     0  02:36           0        4.45       0.448
  WS02004405           JUNCTION      0.04   389.22     0  02:33     0.00107        4.54       0.348
  WS02006109           JUNCTION      1.23   383.49     0  02:29      0.0347        4.62       0.333
  WS02006110           JUNCTION      0.00   383.48     0  02:30           0        4.61       0.279
  WS02006111           JUNCTION      0.00   391.35     0  02:30           0        4.59       0.050
  WS02006112           JUNCTION      7.75   391.09     0  02:30      0.0414        4.63       0.461
  WS02006113           JUNCTION      0.00   383.51     0  02:30           0        4.59       0.098
  WS02006115           JUNCTION      0.00   390.13     0  02:31           0        4.61       0.243
  WS02006116           JUNCTION      0.00   389.72     0  02:31           0        4.59       0.245
  WS02006230           JUNCTION     10.28   182.85     0  02:37        0.29         3.3       0.250
  WS02006231           JUNCTION      0.00   172.15     0  02:37           0        3.02       0.182
  WS02006232           JUNCTION      0.00   171.83     0  02:37           0        3.03       0.334
  WS02006234           JUNCTION      0.00   171.54     0  02:36           0        3.03       0.058
  WS02006235           JUNCTION      0.00   171.41     0  02:36           0        3.07       0.225
  WS02006238           JUNCTION      0.00    88.92     0  00:00           0       0.284       1.151
  WS02006240           JUNCTION      0.00    40.99     0  02:32           0       0.256       1.076
  WS02006242           JUNCTION      0.00    41.19     0  02:30           0       0.246       1.259
  WS02006243           JUNCTION      0.00    41.54     0  02:29           0       0.238      -0.211
  WS02006245           JUNCTION      0.00    41.65     0  02:29           0       0.237       0.370
  WS02006247           JUNCTION      0.00    41.71     0  02:28           0       0.237       0.047
  WS02006248           JUNCTION      0.00    41.72     0  02:27           0       0.237       0.005
  WS02006249           JUNCTION      0.00    41.75     0  02:27           0       0.237       0.165
  WS02006239           JUNCTION      0.00    71.07     0  00:01           0        0.27       1.430
  WS02006251           JUNCTION      0.08    41.79     0  02:26     0.00217       0.237       0.023
  WS02006252           JUNCTION      0.00     0.00     0  00:00           0           0       0.000 ltr
  WS02006253           JUNCTION      1.03    41.73     0  02:26     0.00535       0.235       0.074
  WS02006256           JUNCTION      0.00   300.00     0  00:00           0           5       0.050
  WS02004138           JUNCTION      0.00   285.00     0  00:20           0        7.49       0.035
  WS02004407           JUNCTION      0.00   389.18     0  02:34           0         4.5       0.082
  WS02006228           JUNCTION      0.00   382.26     0  02:29           0         4.6       0.212
  WS02006229           JUNCTION      0.00   382.28     0  02:29           0         4.6       0.181
  WS02006280           JUNCTION      0.00   204.81     0  02:27           0        1.31       0.005
  WS02006284           JUNCTION      0.10   204.80     0  02:27      0.0027        1.31       0.088
  WS02006287           JUNCTION      0.00   204.70     0  02:27           0        1.31       0.053
  WSF200               JUNCTION      0.00   388.37     0  02:37           0        4.42       0.047
  HS02004901           JUNCTION      9.37     9.37     0  02:23      0.0498      0.0501       3.647
  HS02004881           JUNCTION      4.04    40.75     0  02:26      0.0217        0.23       0.028
  HS02004876           JUNCTION      7.43    36.75     0  02:26      0.0417       0.209       0.259
  HS02004870           JUNCTION      7.54    29.42     0  02:26      0.0411       0.167       0.066
  HS02004862           JUNCTION      7.28    22.06     0  02:26      0.0469       0.126       0.138
  HS02004856           JUNCTION      5.65    14.84     0  02:26       0.031      0.0805       1.827
  HS02004852           JUNCTION      0.00     9.33     0  02:26           0      0.0496       0.109
  HS02004848           JUNCTION     15.91    15.91     0  02:26      0.0988      0.0988       0.048
  HS02004842           JUNCTION      0.00     6.79     0  02:52           0      0.0622      26.414
  HS02004837           JUNCTION     19.22    25.66     0  02:25       0.251         0.3       0.272
  HS02004830           JUNCTION      0.15    25.80     0  02:26     0.00423        0.29       0.427
  HS02004824           JUNCTION     19.28    44.91     0  02:27       0.129       0.418       0.129
  HS02004817           JUNCTION      0.60    45.51     0  02:27      0.0169       0.435       3.988
  HS02004807           JUNCTION     13.93    58.94     0  02:27      0.0757       0.494       0.884
  HS02004802           JUNCTION      0.00    59.00     0  02:28           0       0.491       0.815
  HS02004799           JUNCTION     11.15   123.20     0  02:25      0.0613       0.713       0.360
  HS02004792           JUNCTION     47.36   112.13     0  02:24       0.263       0.652       0.064
  HS02004788           JUNCTION     17.07    65.26     0  02:25       0.132        0.39       0.102
  HS02004785           JUNCTION      0.15    48.39     0  02:25     0.00423       0.259       0.188
  HS02004777           JUNCTION      0.03    48.40     0  02:24    0.000846        0.26       2.037
  HS02004770           JUNCTION     39.46    48.64     0  02:23       0.213       0.261       1.203
  HS02004480           JUNCTION      0.00   146.07     0  02:25           0       0.837       0.127
  HS02004479           JUNCTION      0.00    23.09     0  02:27           0       0.137       0.538
  HS02004478           JUNCTION      0.00   204.69     0  02:26           0        1.31       0.032
  YS02001745           JUNCTION    149.28   194.95     0  02:55        1.44        1.44       0.788
  YS02001748           JUNCTION      0.04   322.67     0  02:55     0.00127        1.43       1.650
  YS02001751           JUNCTION      0.01   335.47     0  02:45     0.00031        1.41       1.665
  YS02001754           JUNCTION      0.26   209.99     0  02:49     0.00733        1.39       1.799
  YS02001762           JUNCTION      0.00   200.88     0  02:59           0        1.37       1.558
  YS02001765           JUNCTION      0.00   198.82     0  02:59           0        1.38       1.808
  YS02001767           JUNCTION      0.54   197.03     0  02:59      0.0151         1.4       2.634
  YS02001770           JUNCTION    187.24   191.56     0  02:59        1.65        1.69       1.907
  YS02001774           JUNCTION      0.00   187.05     0  03:41           0       0.325       8.408
  YS02001779           JUNCTION      0.01   187.30     0  03:41    0.000141       0.294       5.503
  YS02001882           JUNCTION      0.00    15.25     0  02:54           0      0.0121      19.200
  YS02001884           JUNCTION      0.00    19.12     0  02:54           0      0.0388      16.374
  YS02001759           JUNCTION    180.39   381.77     0  02:59        1.53        2.83       0.818
  YS02001887           JUNCTION    226.70   238.06     0  03:03        1.79        1.81       0.433
  YS02001890           JUNCTION      0.00   235.17     0  03:00           0        1.77       0.481
  YS02001898           JUNCTION      0.00   237.16     0  02:56           0        1.76       0.154
  YS02001901           JUNCTION      0.00   240.89     0  02:57           0        1.76       0.353
  YS02001904           JUNCTION      0.00   237.90     0  03:08           0        1.75       0.325
  YS02001907           JUNCTION      0.00   452.11     0  03:04           0        3.82       0.602
  YS02001910           JUNCTION      0.00   226.07     0  03:06           0        2.08       0.527
  YS02001915           JUNCTION    132.40   209.59     0  03:03        1.22        2.08       0.254
  YS02001918           JUNCTION      0.00    75.28     0  03:03           0       0.866       0.175
  YS02001619           JUNCTION    129.20   129.20     0  03:01        1.21        1.21       1.018
  YS02001629           JUNCTION      0.00   216.35     0  02:48           0        1.12       2.608
  YS02001641           JUNCTION      0.00   308.56     0  02:58           0        2.44       0.873
  YS02001644           JUNCTION    142.03   709.13     0  03:36        1.38        6.56       0.400
  YS02001652           JUNCTION      0.00   223.06     0  02:56           0        1.27       1.915
  YS02001655           JUNCTION      0.15   352.96     0  02:50     0.00434        1.29       1.851
  YS02001920           JUNCTION      2.87    67.64     0  03:02      0.0809       0.868       0.287
  YS02001923           JUNCTION      0.04    64.78     0  03:02     0.00106       0.788       0.052
  YS02001926           JUNCTION      0.05    64.97     0  03:01     0.00147       0.789       0.356
  YS02001929           JUNCTION     64.98    64.98     0  03:01       0.788       0.788       0.052
  YS02001658           JUNCTION      0.00   567.36     0  02:56           0        1.35       1.632
  YS02001661           JUNCTION      0.00   516.85     0  03:16           0        1.87       0.275
  YS02001664           JUNCTION    164.01   385.54     0  03:16        1.32        1.84       0.356
  YS02001622           JUNCTION      0.00   162.17     0  02:47           0        1.19       2.726
  YS02001633           JUNCTION    144.48   308.85     0  02:58        1.43         2.5       1.308
  YS02001649           JUNCTION      0.00   593.21     0  02:56           0        4.77       0.780
  YS02001757           JUNCTION      0.00  1081.36     0  03:00           0        6.21       1.506
  YS02001895           JUNCTION      0.00   238.87     0  02:57           0        1.76       0.241
  YS02001625           JUNCTION      0.00   216.18     0  02:48           0        1.16       3.449
  YS02163301           JUNCTION      0.00   167.13     0  02:58           0         1.1       2.234
  YS02163601           JUNCTION      0.11   309.02     0  02:58      0.0031        2.47       1.233
  YS02164001           JUNCTION      0.00   309.24     0  02:58           0        2.45       0.835
  YS02001647           JUNCTION      0.00   447.66     0  02:58           0        4.16       0.684
  YSB1154              JUNCTION     13.22    13.22     0  02:24      0.0743      0.0752       1.964
  YSB6556              JUNCTION      0.00    13.14     0  02:25           0      0.0759       1.671
  YSB1174              JUNCTION     10.23    10.23     0  02:22       0.054      0.0546       2.413
  YSB1171              JUNCTION      0.00    23.08     0  02:25           0       0.136       4.885
  YS02006553           JUNCTION      0.00   446.67     0  03:04           0        3.81       0.384
  YS02006561           JUNCTION      0.00   689.23     0  03:04           0        5.39       0.006
  YS02006556           JUNCTION      0.00   444.34     0  03:04           0        3.81       0.282
  YS02006558           JUNCTION    197.15   668.72     0  03:04        1.63        5.42       0.095
  YS02001783           JUNCTION      0.00   657.07     0  02:57           0        5.39       0.033
  YS02001784           JUNCTION      1.06   658.28     0  02:57      0.0299        5.42       0.059
  YS02001786           JUNCTION      0.06   658.27     0  02:57     0.00159        5.42       0.051
  YS02001788           JUNCTION      0.07   658.83     0  02:57       0.002        5.42       0.031
  YS02001790           JUNCTION      0.15   659.21     0  02:57     0.00437        5.42       0.038
  YS02001791           JUNCTION      0.00   659.33     0  02:57           0        5.42       0.019
  YS02001793           JUNCTION      0.00   681.00     0  02:50           0        5.42      -0.002
  WS02004139           JUNCTION      0.32   285.42     0  00:20     0.00905         7.5       0.437
  WSC                  OUTFALL       0.00   698.95     0  02:41           0        12.4       0.000
  3                    OUTFALL       0.00   250.55     0  00:00           0        2.19       0.000
  4                    OUTFALL       0.00     0.00     0  00:00           0           0       0.000 ltr
  5                    OUTFALL       0.00     0.00     0  00:00           0           0       0.000 ltr
  JK-storage           STORAGE       0.00  1011.26     0  02:49           0        5.57      -1.955
  CC-storage           STORAGE       0.00  1082.57     0  03:00           0        3.97       1.663
  XR-storage           STORAGE     442.93   442.93     0  03:01        8.07        8.67      -0.001
  
  
  **********************
  Node Surcharge Summary
  **********************
  
  Surcharging occurs when water rises above the top of the highest conduit.
  ---------------------------------------------------------------------
                                               Max. Height   Min. Depth
                                   Hours       Above Crown    Below Rim
  Node                 Type      Surcharged         Meters       Meters
  ---------------------------------------------------------------------
  YS02001748           JUNCTION        4.71          0.242        0.948
  YS02001751           JUNCTION        4.95          0.582        0.618
  YS02001754           JUNCTION        5.27          0.763        0.387
  YS02001762           JUNCTION        5.51          1.025        0.125
  YS02001765           JUNCTION        5.48          0.970        0.130
  YS02001767           JUNCTION        5.45          0.926        0.104
  YS02001770           JUNCTION        5.43          0.874        0.046
  YS02001774           JUNCTION        5.50          0.969        0.081
  YS02001779           JUNCTION        5.24          0.680        0.000
  YS02001759           JUNCTION        5.54          1.063        0.147
  YS02001907           JUNCTION        0.28          0.052        0.898
  YS02001619           JUNCTION        4.92          0.610        0.000
  YS02001629           JUNCTION        4.95          0.470        0.000
  YS02001641           JUNCTION        5.49          0.937        0.163
  YS02001644           JUNCTION        5.49          0.920        0.000
  YS02001652           JUNCTION        5.33          1.120        0.010
  YS02001655           JUNCTION        4.98          1.200        0.000
  YS02001658           JUNCTION        4.75          1.300        0.000
  YS02001661           JUNCTION        0.11          0.972        0.418
  YS02001622           JUNCTION        4.99          0.620        0.000
  YS02001633           JUNCTION        5.47          0.925        0.135
  YS02001649           JUNCTION        5.52          1.050        0.000
  YS02001757           JUNCTION        5.64          1.165        0.045
  YS02001625           JUNCTION        5.38          0.780        0.000
  YS02163301           JUNCTION        5.44          0.903        0.127
  YS02163601           JUNCTION        5.52          0.990        0.090
  YS02164001           JUNCTION        5.47          0.921        0.179
  YS02001647           JUNCTION        5.35          0.804        0.096
  YS02006553           JUNCTION        0.40          0.059        1.131
  YS02001783           JUNCTION        0.16          0.697        0.903
  YS02001784           JUNCTION        0.30          0.758        0.732
  YS02001786           JUNCTION        0.18          0.551        0.879
  YS02001788           JUNCTION        0.10          0.552        0.928
  YS02001790           JUNCTION        1.55          0.778        0.379
  YS02001791           JUNCTION        1.68          0.560        1.360
  YS02001793           JUNCTION        1.89          1.512        1.088
  
  
  *********************
  Node Flooding Summary
  *********************
  
  Flooding refers to all water that overflows a node, whether it ponds or not.
  --------------------------------------------------------------------------
                                                             Total   Maximum
                                 Maximum   Time of Max       Flood    Ponded
                        Hours       Rate    Occurrence      Volume     Depth
  Node                 Flooded       LPS   days hr:min    10^6 ltr    Meters
  --------------------------------------------------------------------------
  YS02001779              2.06    187.27      0  03:41       0.274     0.000
  YS02001619              0.01     17.28      0  02:59       0.000     0.000
  YS02001629              0.01     27.58      0  03:00       0.000     0.000
  YS02001644              4.58    709.09      0  03:36       5.113     0.000
  YS02001655              0.01    231.93      0  02:49       0.000     0.000
  YS02001658              0.01    170.60      0  02:59       0.000     0.000
  YS02001622              0.01     17.79      0  02:57       0.000     0.000
  YS02001649              0.01     32.72      0  03:19       0.001     0.000
  YS02001625              0.02     14.80      0  03:02       0.000     0.000
  JK-storage              1.23    359.37      0  02:57       0.677     0.000
  XR-storage              2.35    157.92      0  03:01       0.497     0.000
  
  
  **********************
  Storage Volume Summary
  **********************
  
  --------------------------------------------------------------------------------------------------
                         Average     Avg  Evap Exfil       Maximum     Max    Time of Max    Maximum
                          Volume    Pcnt  Pcnt  Pcnt        Volume    Pcnt     Occurrence    Outflow
  Storage Unit           1000 m3    Full  Loss  Loss       1000 m3    Full    days hr:min        LPS
  --------------------------------------------------------------------------------------------------
  JK-storage               0.150      51     0     0         0.291     100       0  02:56     418.04
  CC-storage               2.693      17     0     0         3.869      25       0  03:34     145.33
  XR-storage               0.839      91     0     0         0.926     100       0  02:59     285.00
  
  
  ***********************
  Outfall Loading Summary
  ***********************
  
  -----------------------------------------------------------
                         Flow       Avg       Max       Total
                         Freq      Flow      Flow      Volume
  Outfall Node           Pcnt       LPS       LPS    10^6 ltr
  -----------------------------------------------------------
  WSC                   99.99    499.70    698.95      12.398
  3                     84.15    147.89    250.55       2.189
  4                      0.00      0.00      0.00       0.000
  5                      0.00      0.00      0.00       0.000
  -----------------------------------------------------------
  System                46.04    647.59    868.30      14.587
  
  
  ********************
  Link Flow Summary
  ********************
  
  -----------------------------------------------------------------------------
                                 Maximum  Time of Max   Maximum    Max/    Max/
                                  |Flow|   Occurrence   |Veloc|    Full    Full
  Link                 Type          LPS  days hr:min     m/sec    Flow   Depth
  -----------------------------------------------------------------------------
  WS02003066WSF200     CONDUIT    388.37     0  02:37      2.58    0.07    0.19
  WS02006287WS02006284 CONDUIT    204.71     0  02:27      1.62    0.09    0.22
  WS02006284WS02006280 CONDUIT    204.81     0  02:27      1.86    0.09    0.20
  WS02006280WS02006229 CONDUIT    204.81     0  02:27      2.99    0.04    0.14
  WS02006229WS02006228 CONDUIT    382.26     0  02:29      0.83    1.27    0.98
  WS02006256WS02006235 CONDUIT    166.25     0  00:01      2.58    1.76    1.00
  WS02006253WS02006251 CONDUIT     41.72     0  02:26      0.49    0.13    0.27
  WS02006252WS02006251 CONDUIT      0.00     0  00:00      0.00    0.00    0.00
  WS02006251WS02006249 CONDUIT     41.75     0  02:27      0.54    0.12    0.25
  WS02006249WS02006248 CONDUIT     41.72     0  02:27      0.65    0.23    0.22
  WS02006248WS02006247 CONDUIT     41.71     0  02:28      0.62    0.09    0.23
  WS02006247WS02006245 CONDUIT     41.65     0  02:29      0.55    0.33    0.25
  WS02006245WS02006243 CONDUIT     41.54     0  02:29      0.59    0.12    0.26
  WS02006243WS02006242 CONDUIT     41.19     0  02:30      0.44    0.09    0.37
  WS02006242WS02006240 CONDUIT     40.99     0  02:32      0.64    0.16    0.47
  WS02006240WS02006239 CONDUIT     42.32     0  00:11      0.58    0.13    0.49
  WS02006239WS02006238 CONDUIT     71.07     0  00:01      0.67    0.23    0.60
  WS02006238WS02006235 CONDUIT     94.85     0  00:11      1.25    0.21    0.65
  WS02006235WS02006234 CONDUIT    171.54     0  02:36      0.93    1.81    0.60
  WS02006234WS02006232 CONDUIT    171.83     0  02:37      1.13    0.35    0.68
  WS02006232WS02006231 CONDUIT    172.15     0  02:37      0.67    0.36    0.67
  WS02006231WS02006230 CONDUIT    172.57     0  02:37      1.02    2.62    0.56
  WS02006230WS02006229 CONDUIT    184.31     0  03:09      0.86    4.10    1.00
  WS02006228WS02006109 CONDUIT    382.26     0  02:29      0.76    1.67    0.99
  WS02006116WS02004401 CONDUIT    389.43     0  02:32      0.73    0.54    0.72
  WS02006115WS02006116 CONDUIT    389.72     0  02:31      0.79    0.50    0.64
  WS02006113WS02006111 CONDUIT    391.35     0  02:30      2.19    0.47    0.39
  WS02006112WS02006115 CONDUIT    390.13     0  02:31      0.61    0.23    0.76
  WS02006111WS02006112 CONDUIT    384.12     0  02:30      1.32    0.18    0.64
  WS02006110WS02006113 CONDUIT    383.51     0  02:30      0.97    0.35    0.73
  WS02006109WS02006110 CONDUIT    383.48     0  02:30      0.79    0.74    0.93
  WS02004411WS02004412 CONDUIT    388.51     0  02:36      0.79    0.55    0.60
  WS02004401WS02004402 CONDUIT    389.23     0  02:32      0.77    0.47    0.75
  WS02004413WS02003067 CONDUIT    388.36     0  02:37      0.93    0.17    0.52
  WS02004412WS02004413 CONDUIT    388.40     0  02:36      0.67    0.26    0.69
  WS02004410WS02004411 CONDUIT    388.66     0  02:35      0.82    0.53    0.58
  WS02004409WS02004410 CONDUIT    388.90     0  02:34      0.85    0.50    0.57
  WS02004407WS02004409 CONDUIT    389.17     0  02:34      1.31    0.14    0.40
  WS02004406WS02004407 CONDUIT    389.18     0  02:34      0.86    0.17    0.56
  WS02004405WS02004406 CONDUIT    389.19     0  02:33      0.66    0.77    0.86
  WS02004404WS02004405 CONDUIT    389.18     0  02:33      0.84    3.81    0.86
  WS02004403WS02004404 CONDUIT    389.05     0  02:33      0.74    0.28    0.83
  WS02004402WS02004403 CONDUIT    389.12     0  02:32      0.75    0.56    0.78
  WS02004139WS02001211 CONDUIT    285.79     0  03:23      0.51    0.36    0.52
  WS02004138WS02004139 CONDUIT    285.10     0  00:20      1.55    0.06    0.38
  WS02003067WS02003066 CONDUIT    388.37     0  02:37      1.01    0.12    0.37
  WS02001213WS02003059 CONDUIT    295.34     0  03:24      0.59    0.49    0.69
  WS02001212WS02001213 CONDUIT    294.26     0  03:22      1.19    0.45    0.39
  WS02001211WS02001212 CONDUIT    293.71     0  03:23      0.67    0.22    0.57
  WS02003072WS02003073 CONDUIT    697.13     0  02:40      1.55    1.51    0.42
  WS02003069WS02003072 CONDUIT    697.13     0  02:39      1.47    0.34    0.44
  WS02003060WS02003069 CONDUIT    696.82     0  02:39      1.73    0.27    0.39
  WS02003059WS02003060 CONDUIT    296.88     0  03:23      0.82    0.19    0.58
  HS02004901HS02004770 CONDUIT      9.22     0  02:24      0.05    0.03    0.31
  HS02004876HS02004881 CONDUIT     36.81     0  02:26      0.59    0.39    0.09
  HS02004870HS02004876 CONDUIT     29.40     0  02:26      0.41    0.02    0.10
  HS02004842HS02004848 CONDUIT      6.79     0  02:52      0.04    0.00    0.28
  HS02004837HS02004842 CONDUIT      7.01     0  03:02      0.41    0.00    0.29
  HS02004830HS02004837 CONDUIT     25.65     0  02:26      0.46    0.03    0.08
  HS02004824HS02004830 CONDUIT     25.79     0  02:27      0.49    0.03    0.08
  HS02004817HS02004824 CONDUIT     44.91     0  02:27      0.17    0.02    0.41
  HS02004770HS02004777 CONDUIT     48.37     0  02:24      0.21    0.09    0.33
  HS02004799HS02004480 CONDUIT    123.11     0  02:25      0.58    0.16    0.31
  HS02004792HS02004799 CONDUIT    112.10     0  02:25      0.66    0.07    0.24
  HS02004788HS02004792 CONDUIT     65.23     0  02:26      0.81    0.04    0.11
  HS02004785HS02004788 CONDUIT     48.34     0  02:26      0.49    0.36    0.14
  HS02004777HS02004785 CONDUIT     48.24     0  02:25      0.26    0.06    0.26
  HS02004480HS02004478 CONDUIT    146.06     0  02:26      0.94    0.62    0.22
  HS02004479HS02004480 CONDUIT     23.22     0  02:28      0.27    0.02    0.30
  HS02004862HS02004870 CONDUIT     22.03     0  02:27      0.49    0.02    0.06
  HS02004848HS02004852 CONDUIT      9.33     0  02:26      0.33    0.01    0.04
  HS02004856HS02004862 CONDUIT     14.82     0  02:26      0.35    0.01    0.06
  HS02004852HS02004856 CONDUIT      9.30     0  02:27      0.14    0.01    0.10
  HS02004802HS02004478 CONDUIT     59.19     0  02:29      0.33    0.05    0.26
  HS02004478WS02006287 CONDUIT    204.70     0  02:27      1.31    0.06    0.17
  HS02004817HS02004807 CONDUIT     45.68     0  02:29      0.13    0.03    0.52
  HS02004807HS02004802 CONDUIT     59.00     0  02:28      0.28    0.11    0.31
  YS02001759YS02001757 CONDUIT    382.97     0  02:59      0.49    0.27    1.00
  YS02001762YS02001759 CONDUIT    202.70     0  02:59      0.26    0.23    1.00
  YS02001765YS02001762 CONDUIT    200.88     0  02:59      0.28    0.19    1.00
  YS02001770YS02001767 CONDUIT    196.49     0  02:59      0.25    0.78    1.00
  YS02001774YS02001770 CONDUIT    187.05     0  03:41      0.24    0.12    1.00
  YS02001779YS02001774 CONDUIT    187.29     0  03:41      0.24    0.09    1.00
  YS02001649YS02001757 CONDUIT    594.19     0  02:56      0.76    0.36    1.00
  YS02001767YS02001765 CONDUIT    198.82     0  02:59      0.30    0.25    1.00
  YS02006561YS02001783 CONDUIT    657.07     0  02:57      2.11    0.34    0.77
  YS02001783YS02001784 CONDUIT    657.22     0  02:57      1.52    0.91    1.00
  YS02001784YS02001785 CONDUIT    658.21     0  02:57      1.63    1.53    1.00
  YS02001788YS02001790 CONDUIT    659.05     0  02:57      2.16    0.49    1.00
  YS02001790YS02001791 CONDUIT    659.33     0  02:57      2.56    0.72    1.00
  YS02001791YS02001793 CONDUIT    659.37     0  02:57      5.20    0.28    1.00
  YS02001910YS02001907 CONDUIT    221.29     0  03:07      0.49    0.12    0.91
  YS02001786YS02001788 CONDUIT    658.76     0  02:57      2.10    1.27    1.00
  YS02001915YS02001910 CONDUIT    226.07     0  03:06      0.55    0.11    0.72
  YS02001918YS02001915 CONDUIT     82.42     0  03:06      0.44    0.05    0.43
  YS02001923YS02001920 CONDUIT     64.77     0  03:02      0.57    0.03    0.23
  YS02001926YS02001923 CONDUIT     64.74     0  03:02      0.66    0.09    0.18
  YS02001929YS02001926 CONDUIT     64.92     0  03:01      0.71    0.03    0.17
  YS02001920YS02001918 CONDUIT     75.28     0  03:03      0.57    0.07    0.30
  YS02001629YS02163301 CONDUIT    167.13     0  02:58      0.21    0.21    1.00
  YS02001619YS02001622 CONDUIT    162.17     0  02:47      0.57    0.24    1.00
  YS02001622YS02001625 CONDUIT    216.18     0  02:48      0.31    0.12    1.00
  YS02001625YS02001629 CONDUIT    216.35     0  02:48      0.28    0.10    1.00
  YS02163301YS02001633 CONDUIT    167.19     0  02:58      0.21    0.16    1.00
  YS02163601YS02164001 CONDUIT    309.24     0  02:58      0.39    0.27    1.00
  YS02164001YS02001641 CONDUIT    308.56     0  02:58      0.39    0.42    1.00
  YS02001641YS02001644 CONDUIT    308.11     0  02:58      0.39    1.00    1.00
  YS02001647YS02001649 CONDUIT    446.94     0  02:58      0.57    0.24    1.00
  YS02006553YS02006556 CONDUIT    444.34     0  03:04      0.57    0.38    1.00
  YS02006556YS02006558 CONDUIT    482.71     0  03:04      0.61    0.38    1.00
  YSB6556YSB1171       CONDUIT     13.19     0  02:28      0.06    0.01    0.57
  YS02001907YS02006553 CONDUIT    446.67     0  03:04      0.50    0.53    1.00
  YS02006558YS02006561 CONDUIT    689.23     0  03:04      3.18    1.52    0.79
  YS02001633YS02163601 CONDUIT    308.91     0  02:58      0.39    0.32    1.00
  YS02001644YS02001647 CONDUIT    447.66     0  02:58      0.57    0.26    1.00
  YS02001745YS02001748 CONDUIT    322.63     0  02:55      1.42    0.12    0.93
  YS02001748YS02001751 CONDUIT    335.45     0  02:45      1.00    0.17    1.00
  YS02001751YS02001754 CONDUIT    209.73     0  02:49      0.86    0.10    1.00
  YS02001754YS02001757 CONDUIT    209.55     0  02:49      0.33    0.08    1.00
  YS02001882YS02001884 CONDUIT     16.88     0  02:55      0.09    0.02    0.66
  YS02001884YS02001887 CONDUIT     21.21     0  03:03      0.05    0.03    0.75
  YS02001890YS02001895 CONDUIT    238.87     0  02:57      0.41    0.11    0.72
  YS02001895YS02001898 CONDUIT    237.16     0  02:56      0.53    0.41    0.58
  YS02001898YS02001901 CONDUIT    240.89     0  02:57      0.46    0.16    0.66
  YS02001901YS02001904 CONDUIT    237.90     0  03:08      0.42    0.37    0.71
  YS02001904YS02001907 CONDUIT    246.19     0  02:58      0.35    0.09    0.85
  YS02001887YS02001890 CONDUIT    235.17     0  03:00      0.36    0.40    0.80
  YS02001652YS02001649 CONDUIT    223.68     0  02:56      0.56    0.11    1.00
  YS02001655YS02001652 CONDUIT    223.06     0  02:56      0.91    0.11    1.00
  YS02001658YS02001655 CONDUIT    352.81     0  02:50      1.15    0.15    1.00
  YS02001661YS02001658 CONDUIT    567.36     0  02:56      1.49    0.22    1.00
  YS02001664YS02001661 CONDUIT    516.85     0  03:16      1.35    0.16    0.71
  YSB1154YSB6556       CONDUIT     13.14     0  02:25      0.16    0.02    0.46
  YSB1174YSB1171       CONDUIT     10.08     0  02:23      0.04    0.02    0.57
  YSB1171HS02004479    CONDUIT     23.09     0  02:27      0.54    0.02    0.44
  HS02004881HS02006253 CONDUIT     40.75     0  02:26      1.69    0.01    0.03
  YS02001793JiankangQianchi CONDUIT   1011.26     0  02:49     13.02    0.08    1.00
  YS02001757CaochengTiaoxuchi CONDUIT   1082.57     0  03:00      1.46    0.48    1.00
  WSF200WS02003060     CONDUIT    388.39     0  02:37      1.46    0.09    0.28
  1                    CONDUIT    698.95     0  02:41      3.02    0.24    0.34
  2                    CONDUIT      0.00     0  00:00      0.00    0.00    0.00
  3                    CONDUIT    250.55     0  00:00      8.26    0.40    0.46
  4                    CONDUIT      0.00     0  00:00      0.00    0.00    0.00
  CC-Pump-1            PUMP         0.00     0  00:00              0.00
  CC-Pump-2            PUMP         0.00     0  00:00              0.00
  JK-Pump-1            PUMP       300.00     0  00:00              1.00
  JK-Pump-2            PUMP       300.00     0  02:16              1.00
  XR-Pump-1            PUMP         0.00     0  00:00              0.00
  XR-Pump-2            PUMP        95.00     0  00:20              1.00
  XR-Pump-3            PUMP        95.00     0  00:20              1.00
  XR-Pump-4            PUMP        95.00     0  00:20              1.00
  
  
  ***************************
  Flow Classification Summary
  ***************************
  
  -------------------------------------------------------------------------------------
                      Adjusted    ---------- Fraction of Time in Flow Class ---------- 
                       /Actual         Up    Down  Sub   Sup   Up    Down  Norm  Inlet 
  Conduit               Length    Dry  Dry   Dry   Crit  Crit  Crit  Crit  Ltd   Ctrl  
  -------------------------------------------------------------------------------------
  WS02003066WSF200        1.00   0.08  0.00  0.00  0.00  0.92  0.00  0.00  0.78  0.00
  WS02006287WS02006284    1.00   0.05  0.01  0.00  0.50  0.43  0.00  0.00  0.77  0.00
  WS02006284WS02006280    1.00   0.06  0.00  0.00  0.00  0.00  0.00  0.94  0.00  0.00
  WS02006280WS02006229    1.00   0.06  0.00  0.00  0.00  0.00  0.00  0.94  0.00  0.00
  WS02006229WS02006228    1.00   0.00  0.00  0.00  0.98  0.00  0.00  0.02  0.00  0.00
  WS02006256WS02006235    1.00   0.00  0.00  0.00  1.00  0.00  0.00  0.00  0.00  0.00
  WS02006253WS02006251    1.00   0.04  0.02  0.00  0.94  0.00  0.00  0.00  0.00  0.00
  WS02006252WS02006251    1.00   1.00  0.00  0.00  0.00  0.00  0.00  0.00  0.00  0.00
  WS02006251WS02006249    1.00   0.00  0.00  0.00  1.00  0.00  0.00  0.00  0.88  0.00
  WS02006249WS02006248    1.00   0.00  0.03  0.00  0.03  0.00  0.94  0.00  0.00  0.00
  WS02006248WS02006247    1.00   0.03  0.00  0.00  0.97  0.00  0.00  0.00  0.86  0.00
  WS02006247WS02006245    1.00   0.03  0.00  0.00  0.97  0.00  0.00  0.00  0.00  0.00
  WS02006245WS02006243    1.00   0.02  0.01  0.00  0.93  0.00  0.00  0.05  0.17  0.00
  WS02006243WS02006242    1.00   0.01  0.01  0.00  0.98  0.00  0.00  0.00  0.20  0.00
  WS02006242WS02006240    1.00   0.01  0.00  0.00  0.99  0.00  0.00  0.00  0.00  0.00
  WS02006240WS02006239    1.00   0.00  0.00  0.00  0.95  0.00  0.00  0.04  0.01  0.00
  WS02006239WS02006238    1.00   0.00  0.00  0.00  1.00  0.00  0.00  0.00  0.00  0.00
  WS02006238WS02006235    1.00   0.00  0.00  0.00  1.00  0.00  0.00  0.00  0.00  0.00
  WS02006235WS02006234    1.00   0.00  0.00  0.00  0.95  0.00  0.05  0.00  0.00  0.00
  WS02006234WS02006232    1.00   0.00  0.00  0.00  1.00  0.00  0.00  0.00  0.04  0.00
  WS02006232WS02006231    1.00   0.00  0.00  0.00  0.99  0.00  0.01  0.00  0.00  0.00
  WS02006231WS02006230    1.00   0.00  0.00  0.00  0.28  0.00  0.71  0.00  0.00  0.00
  WS02006230WS02006229    1.00   0.00  0.00  0.00  0.98  0.00  0.00  0.02  0.01  0.00
  WS02006228WS02006109    1.00   0.00  0.00  0.00  0.99  0.00  0.00  0.00  0.00  0.00
  WS02006116WS02004401    1.00   0.03  0.00  0.00  0.97  0.00  0.00  0.00  0.00  0.00
  WS02006115WS02006116    1.00   0.03  0.00  0.00  0.96  0.00  0.00  0.01  0.00  0.00
  WS02006113WS02006111    1.00   0.03  0.00  0.00  0.00  0.97  0.00  0.00  0.18  0.00
  WS02006112WS02006115    1.00   0.03  0.00  0.00  0.96  0.00  0.00  0.00  0.00  0.00
  WS02006111WS02006112    1.00   0.03  0.00  0.00  0.97  0.00  0.00  0.00  0.98  0.00
  WS02006110WS02006113    1.00   0.02  0.01  0.00  0.97  0.00  0.00  0.00  0.00  0.00
  WS02006109WS02006110    1.00   0.00  0.02  0.00  0.97  0.00  0.01  0.00  0.00  0.00
  WS02004411WS02004412    1.00   0.05  0.00  0.00  0.95  0.00  0.00  0.00  0.00  0.00
  WS02004401WS02004402    1.00   0.04  0.00  0.00  0.96  0.00  0.00  0.00  0.00  0.00
  WS02004413WS02003067    1.00   0.06  0.02  0.00  0.00  0.00  0.92  0.00  0.00  0.00
  WS02004412WS02004413    1.00   0.05  0.00  0.00  0.95  0.00  0.00  0.00  0.03  0.00
  WS02004410WS02004411    1.00   0.05  0.00  0.00  0.95  0.00  0.00  0.00  0.03  0.00
  WS02004409WS02004410    1.00   0.05  0.00  0.00  0.95  0.00  0.00  0.00  0.03  0.00
  WS02004407WS02004409    1.00   0.05  0.00  0.00  0.94  0.00  0.00  0.00  0.89  0.00
  WS02004406WS02004407    1.00   0.00  0.05  0.00  0.95  0.00  0.00  0.00  0.00  0.00
  WS02004405WS02004406    1.00   0.00  0.00  0.00  1.00  0.00  0.00  0.00  0.00  0.00
  WS02004404WS02004405    1.00   0.00  0.00  0.00  1.00  0.00  0.00  0.00  0.00  0.00
  WS02004403WS02004404    1.00   0.00  0.04  0.00  0.96  0.00  0.00  0.00  0.01  0.00
  WS02004402WS02004403    1.00   0.04  0.00  0.00  0.96  0.00  0.00  0.00  0.00  0.00
  WS02004139WS02001211    1.00   0.00  0.01  0.00  0.99  0.00  0.00  0.00  0.00  0.00
  WS02004138WS02004139    1.00   0.03  0.01  0.00  0.96  0.00  0.00  0.00  0.98  0.00
  WS02003067WS02003066    1.00   0.08  0.01  0.00  0.92  0.00  0.00  0.00  0.00  0.00
  WS02001213WS02003059    1.00   0.00  0.01  0.00  0.99  0.00  0.00  0.00  0.00  0.00
  WS02001212WS02001213    1.00   0.04  0.00  0.00  0.51  0.00  0.45  0.00  0.00  0.00
  WS02001211WS02001212    1.00   0.00  0.04  0.00  0.96  0.00  0.00  0.00  0.00  0.00
  WS02003072WS02003073    1.00   0.00  0.00  0.00  0.00  0.00  0.00  1.00  0.00  0.00
  WS02003069WS02003072    1.00   0.00  0.00  0.00  0.99  0.01  0.00  0.00  0.22  0.00
  WS02003060WS02003069    1.00   0.00  0.00  0.00  0.99  0.01  0.00  0.00  0.11  0.00
  WS02003059WS02003060    1.00   0.00  0.00  0.00  0.99  0.01  0.00  0.00  0.03  0.00
  HS02004901HS02004770    1.00   0.06  0.00  0.00  0.94  0.00  0.00  0.00  0.00  0.00
  HS02004876HS02004881    1.00   0.03  0.00  0.00  0.97  0.00  0.00  0.00  0.00  0.00
  HS02004870HS02004876    1.00   0.01  0.00  0.00  0.99  0.00  0.00  0.00  0.95  0.00
  HS02004842HS02004848    1.00   0.00  0.06  0.00  0.94  0.00  0.00  0.00  0.61  0.00
  HS02004837HS02004842    1.00   0.00  0.00  0.00  0.99  0.01  0.00  0.00  0.11  0.00
  HS02004830HS02004837    1.00   0.00  0.00  0.00  1.00  0.00  0.00  0.00  0.99  0.00
  HS02004824HS02004830    1.00   0.00  0.00  0.00  1.00  0.00  0.00  0.00  0.00  0.00
  HS02004817HS02004824    1.00   0.00  0.00  0.00  1.00  0.00  0.00  0.00  1.00  0.00
  HS02004770HS02004777    1.00   0.00  0.06  0.00  0.94  0.00  0.00  0.00  0.03  0.00
  HS02004799HS02004480    1.00   0.00  0.03  0.00  0.93  0.00  0.03  0.00  0.00  0.00
  HS02004792HS02004799    1.00   0.00  0.00  0.00  0.98  0.02  0.00  0.00  0.98  0.00
  HS02004788HS02004792    1.00   0.00  0.00  0.00  0.98  0.02  0.00  0.00  0.98  0.00
  HS02004785HS02004788    1.00   0.00  0.00  0.00  1.00  0.00  0.00  0.00  0.00  0.00
  HS02004777HS02004785    1.00   0.00  0.00  0.00  1.00  0.00  0.00  0.00  0.13  0.00
  HS02004480HS02004478    1.00   0.06  0.00  0.00  0.56  0.00  0.00  0.37  0.00  0.00
  HS02004479HS02004480    1.00   0.04  0.00  0.00  0.96  0.00  0.00  0.00  0.12  0.00
  HS02004862HS02004870    1.00   0.00  0.00  0.00  1.00  0.00  0.00  0.00  0.06  0.00
  HS02004848HS02004852    1.00   0.06  0.00  0.00  0.94  0.00  0.00  0.00  0.69  0.00
  HS02004856HS02004862    1.00   0.00  0.08  0.00  0.92  0.00  0.00  0.00  0.81  0.00
  HS02004852HS02004856    1.00   0.06  0.00  0.00  0.94  0.00  0.00  0.00  0.86  0.00
  HS02004802HS02004478    1.00   0.06  0.00  0.00  0.94  0.00  0.00  0.00  0.03  0.00
  HS02004478WS02006287    1.00   0.07  0.00  0.00  0.68  0.25  0.00  0.00  0.77  0.00
  HS02004817HS02004807    1.00   0.00  0.06  0.00  0.94  0.00  0.00  0.00  0.01  0.00
  HS02004807HS02004802    1.00   0.06  0.00  0.00  0.94  0.00  0.00  0.00  0.00  0.00
  YS02001759YS02001757    1.00   0.00  0.00  0.00  1.00  0.00  0.00  0.00  0.16  0.00
  YS02001762YS02001759    1.00   0.00  0.00  0.00  1.00  0.00  0.00  0.00  0.03  0.00
  YS02001765YS02001762    1.00   0.00  0.00  0.00  1.00  0.00  0.00  0.00  0.15  0.00
  YS02001770YS02001767    1.00   0.00  0.00  0.00  1.00  0.00  0.00  0.00  0.00  0.00
  YS02001774YS02001770    1.00   0.00  0.06  0.00  0.94  0.00  0.00  0.00  0.03  0.00
  YS02001779YS02001774    1.00   0.00  0.00  0.00  1.00  0.00  0.00  0.00  0.21  0.00
  YS02001649YS02001757    1.00   0.00  0.00  0.00  1.00  0.00  0.00  0.00  0.16  0.00
  YS02001767YS02001765    1.00   0.00  0.00  0.00  1.00  0.00  0.00  0.00  0.01  0.00
  YS02006561YS02001783    1.00   0.08  0.00  0.00  0.32  0.61  0.00  0.00  0.69  0.00
  YS02001783YS02001784    1.00   0.00  0.08  0.00  0.92  0.00  0.00  0.00  0.01  0.00
  YS02001784YS02001785    1.00   0.00  0.00  0.00  1.00  0.00  0.00  0.00  0.19  0.00
  YS02001788YS02001790    1.00   0.00  0.00  0.00  0.46  0.54  0.00  0.00  0.61  0.00
  YS02001790YS02001791    1.00   0.00  0.00  0.00  0.42  0.58  0.00  0.00  0.50  0.00
  YS02001791YS02001793    1.00   0.00  0.00  0.00  0.43  0.57  0.00  0.00  0.02  0.00
  YS02001910YS02001907    1.00   0.00  0.00  0.00  0.96  0.00  0.00  0.03  0.12  0.00
  YS02001786YS02001788    1.00   0.00  0.00  0.00  0.43  0.57  0.00  0.00  0.00  0.00
  YS02001915YS02001910    1.00   0.00  0.00  0.00  0.98  0.02  0.00  0.00  0.18  0.00
  YS02001918YS02001915    1.00   0.00  0.01  0.00  0.97  0.02  0.00  0.00  0.69  0.00
  YS02001923YS02001920    1.00   0.00  0.00  0.00  1.00  0.00  0.00  0.00  1.00  0.00
  YS02001926YS02001923    1.00   0.00  0.05  0.00  0.00  0.00  0.95  0.00  0.00  0.00
  YS02001929YS02001926    1.00   0.00  0.06  0.00  0.94  0.00  0.00  0.00  0.87  0.00
  YS02001920YS02001918    1.00   0.00  0.01  0.00  0.99  0.00  0.00  0.00  0.00  0.00
  YS02001629YS02163301    1.00   0.07  0.00  0.00  0.93  0.00  0.00  0.00  0.00  0.00
  YS02001619YS02001622    1.00   0.06  0.00  0.00  0.94  0.00  0.00  0.00  0.00  0.00
  YS02001622YS02001625    1.00   0.06  0.00  0.00  0.94  0.00  0.00  0.00  0.07  0.00
  YS02001625YS02001629    1.00   0.06  0.02  0.00  0.89  0.00  0.03  0.00  0.00  0.00
  YS02163301YS02001633    1.00   0.00  0.07  0.00  0.93  0.00  0.00  0.00  0.00  0.00
  YS02163601YS02164001    1.00   0.00  0.05  0.00  0.95  0.00  0.00  0.00  0.00  0.00
  YS02164001YS02001641    1.00   0.01  0.04  0.00  0.95  0.00  0.00  0.00  0.06  0.00
  YS02001641YS02001644    1.00   0.00  0.01  0.00  0.99  0.00  0.00  0.00  0.00  0.00
  YS02001647YS02001649    1.00   0.00  0.08  0.00  0.92  0.00  0.00  0.00  0.01  0.00
  YS02006553YS02006556    1.00   0.02  0.00  0.00  0.98  0.00  0.00  0.00  0.03  0.00
  YS02006556YS02006558    1.00   0.00  0.00  0.00  1.00  0.00  0.00  0.00  0.00  0.00
  YSB6556YSB1171          1.00   0.04  0.02  0.00  0.94  0.00  0.00  0.00  0.00  0.00
  YS02001907YS02006553    1.00   0.00  0.03  0.00  0.97  0.00  0.00  0.00  0.00  0.00
  YS02006558YS02006561    1.00   0.08  0.00  0.00  0.00  0.92  0.00  0.00  0.61  0.00
  YS02001633YS02163601    1.00   0.00  0.01  0.00  0.99  0.00  0.00  0.00  0.15  0.00
  YS02001644YS02001647    1.00   0.00  0.08  0.00  0.92  0.00  0.00  0.00  0.00  0.00
  YS02001745YS02001748    1.00   0.00  0.00  0.00  0.83  0.01  0.00  0.16  0.05  0.00
  YS02001748YS02001751    1.00   0.00  0.00  0.00  0.95  0.05  0.00  0.00  0.15  0.00
  YS02001751YS02001754    1.00   0.00  0.00  0.00  0.91  0.00  0.00  0.08  0.02  0.00
  YS02001754YS02001757    1.00   0.00  0.00  0.00  0.99  0.01  0.00  0.00  0.20  0.00
  YS02001882YS02001884    1.00   0.07  0.00  0.00  0.93  0.00  0.00  0.00  0.00  0.00
  YS02001884YS02001887    1.00   0.04  0.01  0.00  0.94  0.00  0.00  0.00  0.00  0.00
  YS02001890YS02001895    1.00   0.00  0.07  0.00  0.93  0.00  0.00  0.00  0.00  0.00
  YS02001895YS02001898    1.00   0.07  0.00  0.00  0.92  0.00  0.01  0.00  0.00  0.00
  YS02001898YS02001901    1.00   0.07  0.00  0.00  0.93  0.00  0.00  0.00  0.03  0.00
  YS02001901YS02001904    1.00   0.07  0.00  0.00  0.93  0.00  0.00  0.00  0.00  0.00
  YS02001904YS02001907    1.00   0.00  0.07  0.00  0.93  0.00  0.00  0.00  0.00  0.00
  YS02001887YS02001890    1.00   0.00  0.00  0.00  0.96  0.00  0.03  0.00  0.00  0.00
  YS02001652YS02001649    1.00   0.00  0.00  0.00  1.00  0.00  0.00  0.00  0.18  0.00
  YS02001655YS02001652    1.00   0.00  0.00  0.00  0.91  0.00  0.00  0.08  0.02  0.00
  YS02001658YS02001655    1.00   0.00  0.06  0.00  0.89  0.04  0.00  0.00  0.12  0.00
  YS02001661YS02001658    1.00   0.06  0.00  0.00  0.82  0.11  0.00  0.00  0.14  0.00
  YS02001664YS02001661    1.00   0.06  0.00  0.00  0.82  0.12  0.00  0.00  0.26  0.00
  YSB1154YSB6556          1.00   0.06  0.00  0.00  0.94  0.00  0.00  0.00  0.02  0.00
  YSB1174YSB1171          1.00   0.04  0.01  0.00  0.95  0.00  0.00  0.00  0.00  0.00
  YSB1171HS02004479       1.00   0.04  0.00  0.00  0.96  0.00  0.00  0.00  0.10  0.00
  HS02004881HS02006253    1.00   0.04  0.00  0.00  0.00  0.00  0.00  0.96  0.00  0.00
  YS02001793JiankangQianchi    1.00   0.00  0.00  0.00  0.66  0.34  0.00  0.00  0.15  0.00
  YS02001757CaochengTiaoxuchi    1.00   0.00  0.11  0.00  0.89  0.00  0.00  0.00  0.00  0.00
  WSF200WS02003060        1.00   0.00  0.08  0.00  0.92  0.00  0.00  0.00  0.64  0.00
  1                       1.00   0.00  0.00  0.00  0.00  1.00  0.00  0.00  0.47  0.00
  2                       1.00   1.00  0.00  0.00  0.00  0.00  0.00  0.00  0.00  0.00
  3                       1.00   0.16  0.00  0.00  0.00  0.84  0.00  0.00  0.21  0.00
  4                       1.00   1.00  0.00  0.00  0.00  0.00  0.00  0.00  0.00  0.00
  
  
  *************************
  Conduit Surcharge Summary
  *************************
  
  ----------------------------------------------------------------------------
                                                           Hours        Hours 
                         --------- Hours Full --------   Above Full   Capacity
  Conduit                Both Ends  Upstream  Dnstream   Normal Flow   Limited
  ----------------------------------------------------------------------------
  WS02006229WS02006228        0.01      0.01      0.01      1.27         0.01
  WS02006256WS02006235        5.65      5.65      7.55      5.35         0.01
  WS02006235WS02006234        0.01      0.01      0.01      5.36         0.01
  WS02006231WS02006230        0.01      0.01      0.01      6.16         0.01
  WS02006230WS02006229        0.75      0.87      0.75      6.26         0.75
  WS02006228WS02006109        0.01      0.21      0.01      1.62         0.01
  WS02006111WS02006112        0.01      0.01      1.31      0.01         0.01
  WS02006109WS02006110        0.01      0.01      0.21      0.01         0.01
  WS02004404WS02004405        0.01      0.01      0.01      5.95         0.01
  WS02003072WS02003073        0.01      0.01      0.01      4.21         0.01
  YS02001759YS02001757        5.54      5.54      5.64      0.01         0.01
  YS02001762YS02001759        5.51      5.51      5.54      0.01         0.01
  YS02001765YS02001762        5.48      5.48      5.51      0.01         0.01
  YS02001770YS02001767        5.44      5.44      5.45      0.01         0.52
  YS02001774YS02001770        5.43      5.43      5.50      0.01         0.01
  YS02001779YS02001774        5.24      5.24      5.50      0.01         0.01
  YS02001649YS02001757        5.52      5.52      5.64      0.01         0.01
  YS02001767YS02001765        5.45      5.45      5.48      0.01         0.01
  YS02006561YS02001783        0.01      0.01      0.16      0.01         0.01
  YS02001783YS02001784        0.16      0.16      0.30      0.01         0.02
  YS02001784YS02001785        0.18      0.30      0.18      1.10         0.16
  YS02001788YS02001790        0.10      0.10      1.55      0.01         0.01
  YS02001790YS02001791        1.55      1.55      1.68      0.01         0.01
  YS02001791YS02001793        1.68      1.68      1.97      0.01         0.01
  YS02001910YS02001907        0.01      0.01      0.28      0.01         0.01
  YS02001786YS02001788        0.10      0.18      0.10      0.58         0.09
  YS02001629YS02163301        5.42      5.42      5.44      0.01         0.01
  YS02001619YS02001622        4.92      4.92      4.99      0.01         0.02
  YS02001622YS02001625        4.99      4.99      5.38      0.01         0.01
  YS02001625YS02001629        4.95      4.95      5.38      0.01         0.01
  YS02163301YS02001633        5.44      5.44      5.48      0.01         0.01
  YS02163601YS02164001        5.47      5.47      5.52      0.01         0.01
  YS02164001YS02001641        5.47      5.47      5.49      0.01         0.02
  YS02001641YS02001644        5.49      5.49      5.49      0.01         0.53
  YS02001647YS02001649        5.35      5.35      5.52      0.01         0.01
  YS02006553YS02006556        0.01      0.01      0.40      0.01         0.01
  YS02006556YS02006558        0.06      0.06      0.53      0.01         0.01
  YS02001907YS02006553        1.13      1.13      1.35      0.01         0.01
  YS02006558YS02006561        0.01      0.01      0.01      0.94         0.01
  YS02001633YS02163601        5.47      5.47      5.52      0.01         0.01
  YS02001644YS02001647        5.35      5.35      5.49      0.01         0.01
  YS02001745YS02001748        0.01      0.01      4.71      0.01         0.01
  YS02001748YS02001751        4.77      4.77      4.95      0.01         0.01
  YS02001751YS02001754        4.95      4.95      5.27      0.01         0.01
  YS02001754YS02001757        5.34      5.34      5.64      0.01         0.01
  YS02001904YS02001907        0.01      0.01      0.44      0.01         0.01
  YS02001652YS02001649        5.36      5.36      5.52      0.01         0.01
  YS02001655YS02001652        4.98      4.98      5.33      0.01         0.01
  YS02001658YS02001655        4.74      4.74      4.98      0.01         0.01
  YS02001661YS02001658        0.10      0.10      4.74      0.01         0.01
  YS02001664YS02001661        0.01      0.01      0.79      0.01         0.01
  YS02001793JiankangQianchi        1.89      1.89      2.99      0.01         0.01
  YS02001757CaochengTiaoxuchi        4.73      4.73      5.64      0.01         0.01
  
  
  ***************
  Pumping Summary
  ***************
  
  ---------------------------------------------------------------------------------------------------------
                                                  Min       Avg       Max     Total     Power    % Time Off
                        Percent   Number of      Flow      Flow      Flow    Volume     Usage    Pump Curve
  Pump                 Utilized   Start-Ups       LPS       LPS       LPS  10^6 ltr     Kw-hr    Low   High
  ---------------------------------------------------------------------------------------------------------
  CC-Pump-1                0.00           0      0.00      0.00      0.00     0.000      0.00    0.0    0.0
  CC-Pump-2                0.00           0      0.00      0.00      0.00     0.000      0.00    0.0    0.0
  JK-Pump-1               19.15           2      0.00    121.97    300.00     0.262      4.41    0.0    0.0
  JK-Pump-2               97.86           1      0.00    243.92    300.00     4.741     51.37    0.0    0.0
  XR-Pump-1                0.00           0      0.00      0.00      0.00     0.000      0.00    0.0    0.0
  XR-Pump-2               91.48           3      0.00     92.27     95.00     2.308     15.86    0.0    0.0
  XR-Pump-3               97.86           1      0.00     94.68     95.00     2.593     19.33    0.0    0.0
  XR-Pump-4               97.86           1      0.00     94.68     95.00     2.593     19.33    0.0    0.0
  

  Analysis begun on:  Tue Dec 14 13:41:36 2021
  Analysis ended on:  Tue Dec 14 13:41:39 2021
  Total elapsed time: 00:00:03