
  EPA STORM WATER MANAGEMENT MODEL - VERSION 5.1 (Build 5.3.0.dev0)
  --------------------------------------------------------------

  WARNING 04: minimum elevation drop used for Conduit WS02004404WS02004405
  WARNING 03: negative offset ignored for Link YS02001904YS02001907
  
  *********************************************************
  NOTE: The summary statistics displayed in this report are
  based on results found at every computational time step,  
  not just on results from each reporting time step.
  *********************************************************
  
  ****************
  Analysis Options
  ****************
  Flow Units ............... LPS
  Process Models:
    Rainfall/Runoff ........ YES
    RDII ................... NO
    Snowmelt ............... NO
    Groundwater ............ NO
    Flow Routing ........... YES
    Ponding Allowed ........ NO
    Water Quality .......... NO
  Infiltration Method ...... HORTON
  Flow Routing Method ...... DYNWAVE
  Surcharge Method ......... EXTRAN
  Starting Date ............ 08/28/2015 08:00:00
  Ending Date .............. 08/28/2015 15:50:00
  Antecedent Dry Days ...... 8.0
  Report Time Step ......... 00:01:00
  Wet Time Step ............ 00:01:00
  Dry Time Step ............ 00:01:00
  Routing Time Step ........ 5.00 sec
  Variable Time Step ....... YES
  Maximum Trials ........... 8
  Number of Threads ........ 4
  Head Tolerance ........... 0.001500 m
  
  
  **************************        Volume         Depth
  Runoff Quantity Continuity     hectare-m            mm
  **************************     ---------       -------
  Total Precipitation ......         5.493        12.027
  Evaporation Loss .........         0.000         0.000
  Infiltration Loss ........         1.412         3.091
  Surface Runoff ...........         3.074         6.729
  Final Storage ............         1.009         2.209
  Continuity Error (%) .....        -0.014
  
  
  **************************        Volume        Volume
  Flow Routing Continuity        hectare-m      10^6 ltr
  **************************     ---------     ---------
  Dry Weather Inflow .......         0.616         6.165
  Wet Weather Inflow .......         3.072        30.724
  Groundwater Inflow .......         0.000         0.000
  RDII Inflow ..............         0.000         0.000
  External Inflow ..........         0.102         1.024
  External Outflow .........         1.614        16.142
  Flooding Loss ............         1.642        16.416
  Evaporation Loss .........         0.000         0.000
  Exfiltration Loss ........         0.000         0.000
  Initial Stored Volume ....         0.076         0.761
  Final Stored Volume ......         0.617         6.165
  Continuity Error (%) .....        -0.128
  
  
  *************************
  Highest Continuity Errors
  *************************
  Node HS02004842 (16.38%)
  Node YS02001884 (11.42%)
  Node YSB1171 (3.16%)
  Node HS02004817 (3.01%)
  Node HS02004901 (2.34%)
  
  
  ***************************
  Time-Step Critical Elements
  ***************************
  Link 3 (87.28%)
  Link YS02001793JiankangQianchi (7.11%)
  Link WS02006280WS02006229 (1.23%)
  
  
  ********************************
  Highest Flow Instability Indexes
  ********************************
  Link WS02006113WS02006111 (57)
  Link YS02163301YS02001633 (56)
  Link YS02001629YS02163301 (55)
  Link YS02163601YS02164001 (55)
  Link YS02001619YS02001622 (54)
  
  
  *************************
  Routing Time Step Summary
  *************************
  Minimum Time Step           :     0.50 sec
  Average Time Step           :     1.04 sec
  Maximum Time Step           :     5.00 sec
  Percent in Steady State     :     0.00
  Average Iterations per Step :     5.03
  Percent Not Converging      :    23.63
  
  
  ***************************
  Subcatchment Runoff Summary
  ***************************
  
  ------------------------------------------------------------------------------------------------------------------------------
                            Total      Total      Total      Total     Imperv       Perv      Total       Total     Peak  Runoff
                           Precip      Runon       Evap      Infil     Runoff     Runoff     Runoff      Runoff   Runoff   Coeff
  Subcatchment                 mm         mm         mm         mm         mm         mm         mm    10^6 ltr      LPS
  ------------------------------------------------------------------------------------------------------------------------------
  sub0                      12.03       0.00       0.00       0.84       9.92       0.00       9.92        0.01     2.03   0.825
  sub1                      12.03       0.00       0.00       1.32       9.45       0.00       9.45        0.06    13.40   0.786
  sub2                      12.03       0.00       0.00       4.45       6.67       0.00       6.67        0.06    12.40   0.555
  sub3                      12.03       0.00       0.00       4.45       6.63       0.00       6.63        0.15    27.80   0.552
  sub4                      12.03       0.00       0.00       1.32       9.30       0.00       9.30        0.19    33.44   0.773
  sub5                      12.03       0.00       0.00       0.84       9.87       0.00       9.87        0.11    23.84   0.821
  sub7                      12.03       0.00       0.00       1.08       9.69       0.00       9.69        0.03     7.67   0.806
  sub8                      12.03       0.00       0.00       1.08       9.68       0.00       9.68        0.06    14.05   0.805
  sub9                      12.03       0.00       0.00       1.08       9.68       0.00       9.68        0.05    10.50   0.805
  sub10                     12.03       0.00       0.00       0.96       9.77       0.00       9.77        0.11    23.44   0.813
  sub11                     12.03       0.00       0.00       0.96       9.79       0.00       9.79        0.11    26.14   0.814
  sub12                     12.03       0.00       0.00       1.56       9.28       0.00       9.28        0.08    19.99   0.771
  sub14                     12.03       0.00       0.00       1.08       9.68       0.00       9.68        0.09    20.64   0.805
  sub15                     12.03       0.00       0.00       3.61       7.44       0.00       7.44        0.13    28.31   0.619
  sub16                     12.03       0.00       0.00       3.97       7.14       0.00       7.14        0.07    18.12   0.594
  sub17                     12.03       0.00       0.00       3.85       7.24       0.00       7.24        0.06    14.90   0.602
  sub22                     12.03       0.00       0.00       5.17       6.07       0.00       6.07        0.38    88.71   0.504
  sub23                     12.03       0.00       0.00       4.45       6.71       0.00       6.71        0.32    74.74   0.558
  sub60                     12.03       0.00       0.00       1.44       7.74       0.00       7.74        2.35   221.95   0.644
  sub61                     12.03       0.00       0.00       2.04       7.85       0.00       7.85        2.42   262.11   0.653
  sub62                     12.03       0.00       0.00       0.96       8.54       0.00       8.54        2.63   273.68   0.710
  sub63                     12.03       0.00       0.00       3.49       6.87       0.00       6.87        2.08   239.63   0.571
  sub64                     12.03       0.00       0.00       1.80       7.43       0.00       7.43        2.26   211.47   0.618
  sub65                     12.03       0.00       0.00       1.56       7.55       0.00       7.55        2.32   215.23   0.628
  sub66                     12.03       0.00       0.00       3.49       6.37       0.00       6.37        1.95   191.04   0.530
  sub67                     12.03       0.00       0.00       0.96       9.00       0.00       9.00        2.78   332.67   0.749
  sub68                     12.03       0.00       0.00       1.68       8.26       0.00       8.26        2.54   285.76   0.687
  sub69                     12.03       0.00       0.00       1.80       8.55       0.00       8.55        2.00   265.64   0.711
  sub70                     12.03       8.73       0.00       6.95      11.44       0.11      11.55        2.64   261.84   0.556
  sub71                     12.03       0.00       0.00       0.96       8.33       0.00       8.33        1.97   195.24   0.692
  sub72                     12.03       0.00       0.00       0.84       6.67       0.00       6.67        1.36   105.11   0.555
  sub73                     12.03      11.24       0.00       7.83      12.57       0.08      12.65        2.97   255.46   0.544
  sub74                     12.03       0.00       0.00       9.02       2.55       0.00       2.55        1.02   143.98   0.212
  
  
  ******************
  Node Depth Summary
  ******************
  
  ---------------------------------------------------------------------------------
                                 Average  Maximum  Maximum  Time of Max    Reported
                                   Depth    Depth      HGL   Occurrence   Max Depth
  Node                 Type       Meters   Meters   Meters  days hr:min      Meters
  ---------------------------------------------------------------------------------
  WS02001211           JUNCTION     0.68     0.72     5.56     0  02:02        0.72
  WS02001212           JUNCTION     0.40     0.45     5.51     0  02:01        0.45
  WS02001213           JUNCTION     0.62     0.71     5.47     0  02:01        0.71
  WS02003069           JUNCTION     0.41     0.55     5.14     0  02:00        0.55
  WS02003072           JUNCTION     0.48     0.61     4.98     0  02:01        0.61
  WS02003073           JUNCTION     0.29     0.37     4.44     0  02:01        0.37
  WS02003060           JUNCTION     0.37     0.49     5.42     0  02:00        0.49
  WS02003066           JUNCTION     0.20     0.30     5.85     0  01:57        0.30
  WS02003059           JUNCTION     0.67     0.77     5.45     0  02:00        0.77
  WS02003067           JUNCTION     0.51     0.71     6.03     0  01:57        0.71
  WS02004401           JUNCTION     0.59     0.86     6.86     0  01:56        0.86
  WS02004402           JUNCTION     0.63     0.89     6.85     0  01:55        0.89
  WS02004403           JUNCTION     0.65     0.90     6.83     0  01:55        0.90
  WS02004404           JUNCTION     0.73     0.97     6.82     0  01:56        0.97
  WS02004406           JUNCTION     0.74     0.96     6.79     0  01:55        0.96
  WS02004409           JUNCTION     0.41     0.68     6.45     0  01:56        0.68
  WS02004410           JUNCTION     0.43     0.69     6.41     0  01:56        0.69
  WS02004411           JUNCTION     0.45     0.70     6.38     0  01:56        0.70
  WS02004412           JUNCTION     0.47     0.70     6.34     0  01:57        0.70
  WS02004413           JUNCTION     0.63     0.86     6.33     0  01:57        0.86
  WS02004405           JUNCTION     0.72     0.96     6.81     0  01:56        0.96
  WS02006109           JUNCTION     0.66     0.97     7.59     0  01:51        0.97
  WS02006110           JUNCTION     0.66     0.92     7.51     0  01:51        0.92
  WS02006111           JUNCTION     0.18     0.29     6.99     0  01:50        0.29
  WS02006112           JUNCTION     0.75     1.11     6.99     0  01:57        1.09
  WS02006113           JUNCTION     0.28     0.45     7.35     0  01:52        0.45
  WS02006115           JUNCTION     0.48     0.76     6.90     0  01:54        0.76
  WS02006116           JUNCTION     0.56     0.84     6.88     0  01:54        0.84
  WS02006230           JUNCTION     0.58     0.97     7.72     0  01:52        0.97
  WS02006231           JUNCTION     0.36     0.61     7.73     0  01:52        0.61
  WS02006232           JUNCTION     0.48     0.71     7.75     0  01:52        0.71
  WS02006234           JUNCTION     0.38     0.60     7.76     0  01:52        0.60
  WS02006235           JUNCTION     0.40     0.61     7.77     0  01:53        0.61
  WS02006238           JUNCTION     0.42     0.63     7.77     0  01:53        0.63
  WS02006240           JUNCTION     0.27     0.48     7.78     0  01:53        0.48
  WS02006242           JUNCTION     0.30     0.51     7.78     0  01:53        0.51
  WS02006243           JUNCTION     0.15     0.36     7.78     0  01:53        0.36
  WS02006245           JUNCTION     0.11     0.31     7.79     0  01:54        0.31
  WS02006247           JUNCTION     0.11     0.31     7.81     0  01:53        0.31
  WS02006248           JUNCTION     0.08     0.23     7.82     0  01:53        0.23
  WS02006249           JUNCTION     0.11     0.26     7.85     0  01:53        0.26
  WS02006239           JUNCTION     0.35     0.56     7.77     0  01:53        0.56
  WS02006251           JUNCTION     0.08     0.23     7.90     0  01:51        0.23
  WS02006252           JUNCTION     0.00     0.00     8.24     0  00:00        0.00
  WS02006253           JUNCTION     0.13     0.29     7.94     0  01:44        0.29
  WS02006256           JUNCTION     1.05     1.15     8.09     0  00:00        1.12
  WS02004138           JUNCTION     0.16     0.17     7.42     0  00:40        0.17
  WS02004407           JUNCTION     0.19     0.30     6.61     0  01:56        0.30
  WS02006228           JUNCTION     0.65     1.01     7.66     0  01:51        1.01
  WS02006229           JUNCTION     0.62     1.01     7.70     0  01:51        1.01
  WS02006280           JUNCTION     0.08     0.19     8.46     0  01:42        0.19
  WS02006284           JUNCTION     0.38     0.54     8.94     0  01:42        0.54
  WS02006287           JUNCTION     0.11     0.28     9.23     0  01:42        0.28
  WSF200               JUNCTION     0.18     0.31     5.55     0  01:57        0.31
  HS02004901           JUNCTION     0.14     0.28    10.10     0  01:39        0.28
  HS02004881           JUNCTION     0.01     0.03     9.06     0  01:43        0.03
  HS02004876           JUNCTION     0.05     0.12     9.15     0  01:43        0.12
  HS02004870           JUNCTION     0.02     0.06     9.35     0  01:43        0.06
  HS02004862           JUNCTION     0.02     0.07     9.45     0  01:44        0.07
  HS02004856           JUNCTION     0.08     0.12     9.55     0  01:44        0.12
  HS02004852           JUNCTION     0.01     0.04     9.56     0  01:52        0.04
  HS02004848           JUNCTION     0.01     0.04     9.64     0  01:51        0.04
  HS02004842           JUNCTION     0.33     0.37     9.64     0  01:51        0.37
  HS02004837           JUNCTION     0.03     0.06     9.64     0  01:51        0.06
  HS02004830           JUNCTION     0.04     0.08     9.55     0  01:45        0.08
  HS02004824           JUNCTION     0.03     0.06     9.46     0  01:54        0.06
  HS02004817           JUNCTION     0.45     0.59     9.43     0  01:43        0.59
  HS02004807           JUNCTION     0.14     0.26     9.43     0  01:43        0.26
  HS02004802           JUNCTION     0.17     0.30     9.42     0  01:43        0.29
  HS02004799           JUNCTION     0.14     0.33     9.54     0  01:40        0.33
  HS02004792           JUNCTION     0.04     0.14     9.66     0  01:40        0.14
  HS02004788           JUNCTION     0.03     0.10    10.00     0  01:40        0.10
  HS02004785           JUNCTION     0.06     0.17    10.07     0  01:40        0.17
  HS02004777           JUNCTION     0.16     0.30    10.10     0  01:39        0.30
  HS02004770           JUNCTION     0.13     0.27    10.10     0  01:39        0.27
  HS02004480           JUNCTION     0.10     0.27     9.51     0  01:41        0.27
  HS02004479           JUNCTION     0.13     0.30     9.51     0  01:40        0.30
  HS02004478           JUNCTION     0.07     0.18     9.41     0  01:42        0.18
  YS02001745           JUNCTION     0.72     0.89     8.41     0  02:48        0.89
  YS02001748           JUNCTION     1.11     2.22     9.30     0  02:03        1.33
  YS02001751           JUNCTION     1.29     2.06     8.94     0  02:03        1.54
  YS02001754           JUNCTION     1.54     2.00     8.61     0  02:03        1.81
  YS02001762           JUNCTION     1.74     2.04     8.44     0  02:38        2.02
  YS02001765           JUNCTION     1.70     1.99     8.44     0  02:47        1.96
  YS02001767           JUNCTION     1.66     1.94     8.43     0  03:01        1.92
  YS02001770           JUNCTION     1.65     1.92     8.41     0  02:58        1.91
  YS02001774           JUNCTION     1.72     1.98     8.40     0  02:56        1.97
  YS02001779           JUNCTION     1.47     1.68     8.37     0  02:04        1.68
  YS02001882           JUNCTION     0.56     1.37     8.09     0  02:30        1.36
  YS02001884           JUNCTION     0.66     1.47     8.09     0  02:29        1.46
  YS02001759           JUNCTION     1.78     2.07     8.44     0  02:49        2.06
  YS02001887           JUNCTION     0.74     1.56     8.09     0  02:29        1.54
  YS02001890           JUNCTION     0.76     1.58     8.08     0  02:29        1.56
  YS02001898           JUNCTION     0.54     1.34     8.07     0  02:30        1.32
  YS02001901           JUNCTION     0.65     1.46     8.07     0  02:30        1.45
  YS02001904           JUNCTION     0.63     1.43     8.06     0  02:30        1.42
  YS02001907           JUNCTION     0.96     1.77     8.06     0  02:31        1.76
  YS02001910           JUNCTION     0.75     1.56     8.07     0  02:30        1.54
  YS02001915           JUNCTION     0.55     1.35     8.07     0  02:31        1.34
  YS02001918           JUNCTION     0.28     1.00     8.06     0  02:30        0.99
  YS02001619           JUNCTION     1.26     1.61     8.54     0  02:00        1.46
  YS02001629           JUNCTION     1.61     1.85     8.40     0  02:01        1.84
  YS02001641           JUNCTION     1.70     1.97     8.41     0  02:06        1.93
  YS02001644           JUNCTION     1.71     1.92     8.35     0  02:06        1.92
  YS02001652           JUNCTION     1.56     2.13     8.72     0  02:20        2.02
  YS02001655           JUNCTION     1.32     2.20     9.05     0  02:01        1.99
  YS02001920           JUNCTION     0.38     1.05     8.06     0  02:30        1.05
  YS02001923           JUNCTION     0.21     0.80     8.06     0  02:29        0.80
  YS02001926           JUNCTION     0.25     0.62     8.06     0  02:30        0.62
  YS02001929           JUNCTION     0.13     0.37     8.07     0  02:30        0.36
  YS02001658           JUNCTION     1.05     2.30     9.44     0  02:01        1.87
  YS02001661           JUNCTION     0.82     2.25     9.65     0  02:20        1.97
  YS02001664           JUNCTION     0.37     0.57     8.50     0  02:18        0.56
  YS02001622           JUNCTION     1.28     1.62     8.52     0  02:00        1.49
  YS02001633           JUNCTION     1.70     1.98     8.44     0  02:06        1.94
  YS02001649           JUNCTION     1.75     2.05     8.44     0  02:16        2.05
  YS02001757           JUNCTION     1.87     2.18     8.44     0  02:50        2.16
  YS02001895           JUNCTION     0.53     1.33     8.08     0  02:30        1.32
  YS02001625           JUNCTION     1.56     1.78     8.38     0  02:01        1.78
  YS02163301           JUNCTION     1.64     1.90     8.42     0  02:06        1.87
  YS02163601           JUNCTION     1.75     2.05     8.45     0  02:06        1.98
  YS02164001           JUNCTION     1.69     1.98     8.44     0  02:06        1.91
  YS02001647           JUNCTION     1.54     1.81     8.42     0  02:20        1.79
  YSB1154              JUNCTION     0.27     0.45     9.51     0  01:40        0.45
  YSB6556              JUNCTION     0.17     0.34     9.51     0  01:40        0.34
  YSB1174              JUNCTION     0.22     0.40     9.51     0  01:41        0.40
  YSB1171              JUNCTION     0.42     0.61     9.51     0  01:40        0.61
  YS02006553           JUNCTION     0.96     1.76     8.05     0  02:31        1.75
  YS02006561           JUNCTION     0.33     0.93     7.59     0  02:30        0.92
  YS02006556           JUNCTION     0.92     1.71     8.02     0  02:29        1.70
  YS02006558           JUNCTION     0.97     1.75     8.02     0  02:30        1.74
  YS02001783           JUNCTION     0.61     2.03     8.17     0  01:59        1.33
  YS02001784           JUNCTION     0.63     1.86     7.93     0  01:59        1.29
  YS02001786           JUNCTION     0.58     2.11     8.14     0  02:00        1.55
  YS02001788           JUNCTION     0.53     1.82     7.80     0  02:00        1.74
  YS02001790           JUNCTION     0.70     1.96     7.60     0  01:58        1.71
  YS02001791           JUNCTION     0.72     1.63     7.10     0  02:00        1.50
  YS02001793           JUNCTION     1.07     2.01     6.85     0  02:00        1.89
  WS02004139           JUNCTION     0.62     0.66     5.57     0  02:03        0.66
  WSC                  OUTFALL      0.29     0.38     1.05     0  02:02        0.38
  3                    OUTFALL      0.09     0.13     6.13     0  00:00        0.11
  4                    OUTFALL      0.00     0.00     7.00     0  00:00        0.00
  5                    OUTFALL      0.00     0.00     5.00     0  00:00        0.00
  JK-storage           STORAGE      3.93     5.80     6.60     0  01:59        5.80
  CC-storage           STORAGE      1.12     1.40     8.40     0  02:43        1.40
  XR-storage           STORAGE      7.32     7.72     5.72     0  02:07        7.72
  
  
  *******************
  Node Inflow Summary
  *******************
  
  -------------------------------------------------------------------------------------------------
                                  Maximum  Maximum                  Lateral       Total        Flow
                                  Lateral    Total  Time of Max      Inflow      Inflow     Balance
                                   Inflow   Inflow   Occurrence      Volume      Volume       Error
  Node                 Type           LPS      LPS  days hr:min    10^6 ltr    10^6 ltr     Percent
  -------------------------------------------------------------------------------------------------
  WS02001211           JUNCTION      7.35   293.22     0  02:28       0.207        7.85       0.510
  WS02001212           JUNCTION      0.00   293.86     0  02:28           0        7.81       0.248
  WS02001213           JUNCTION      0.00   294.45     0  02:27           0        7.79       0.282
  WS02003069           JUNCTION      0.32   857.55     0  02:00     0.00902        13.5       0.172
  WS02003072           JUNCTION      0.00   857.39     0  02:00           0        13.4       0.222
  WS02003073           JUNCTION      1.82   859.16     0  02:01      0.0514        13.4       0.241
  WS02003060           JUNCTION     16.53   857.59     0  01:59       0.466        13.5       0.165
  WS02003066           JUNCTION      0.00   549.50     0  01:57           0        5.28       0.052
  WS02003059           JUNCTION      0.00   295.50     0  02:27           0        7.78       0.496
  WS02003067           JUNCTION      0.00   549.43     0  01:57           0        5.28       0.120
  WS02004401           JUNCTION      0.00   551.71     0  01:55           0        5.44       0.273
  WS02004402           JUNCTION      0.00   551.92     0  01:55           0        5.43       0.268
  WS02004403           JUNCTION      0.00   552.56     0  01:55           0        5.41       0.252
  WS02004404           JUNCTION      0.16   552.25     0  01:55     0.00457         5.4       0.200
  WS02004406           JUNCTION      0.00   551.49     0  01:55           0        5.38       0.491
  WS02004409           JUNCTION      0.00   550.54     0  01:56           0        5.35       0.156
  WS02004410           JUNCTION      0.00   550.12     0  01:56           0        5.34       0.192
  WS02004411           JUNCTION      0.00   549.90     0  01:56           0        5.33       0.210
  WS02004412           JUNCTION      0.00   549.76     0  01:56           0        5.32       0.245
  WS02004413           JUNCTION      0.00   549.64     0  01:57           0         5.3       0.390
  WS02004405           JUNCTION      0.04   552.19     0  01:55     0.00107        5.39       0.299
  WS02006109           JUNCTION      1.23   537.43     0  01:50      0.0347        5.46       0.299
  WS02006110           JUNCTION      0.00   537.43     0  01:50           0        5.44       0.246
  WS02006111           JUNCTION      0.00   558.34     0  01:52           0        5.43       0.046
  WS02006112           JUNCTION     14.90   555.33     0  01:50      0.0621        5.49       0.398
  WS02006113           JUNCTION      0.00   537.75     0  01:50           0        5.43       0.089
  WS02006115           JUNCTION      0.00   569.34     0  01:54           0        5.46       0.215
  WS02006116           JUNCTION      0.00   554.23     0  01:54           0        5.45       0.216
  WS02006230           JUNCTION     10.28   207.26     0  02:09        0.29        3.59       0.289
  WS02006231           JUNCTION      0.00   194.67     0  02:09           0        3.31       0.096
  WS02006232           JUNCTION      0.00   193.07     0  02:08           0        3.31       0.320
  WS02006234           JUNCTION      0.00   191.14     0  02:08           0        3.31       0.072
  WS02006235           JUNCTION      0.00   190.03     0  02:08           0        3.35       0.204
  WS02006238           JUNCTION      0.00    88.92     0  00:00           0       0.396       0.906
  WS02006240           JUNCTION      0.00    75.43     0  01:59           0       0.376       0.853
  WS02006242           JUNCTION      0.00    74.36     0  01:57           0       0.371       1.095
  WS02006243           JUNCTION      0.00    73.98     0  01:53           0       0.363      -0.179
  WS02006245           JUNCTION      0.00    73.99     0  01:53           0       0.362       0.318
  WS02006247           JUNCTION      0.00    74.91     0  01:43           0       0.362       0.048
  WS02006248           JUNCTION      0.00    75.90     0  01:44           0       0.362      -0.025
  WS02006249           JUNCTION      0.00    76.34     0  01:44           0       0.362       0.145
  WS02006239           JUNCTION      0.00    76.55     0  02:03           0       0.385       1.031
  WS02006251           JUNCTION      0.08    76.46     0  01:43     0.00217       0.362      -0.007
  WS02006252           JUNCTION      0.00     0.00     0  00:00           0           0       0.000 ltr
  WS02006253           JUNCTION      2.03    76.41     0  01:43     0.00803        0.36       0.073
  WS02006256           JUNCTION      0.00   300.00     0  00:00           0         5.7       0.046
  WS02004138           JUNCTION      0.00   285.00     0  00:40           0        7.67       0.034
  WS02004407           JUNCTION      0.00   551.04     0  01:55           0        5.35       0.073
  WS02006228           JUNCTION      0.00   536.20     0  01:50           0        5.44       0.188
  WS02006229           JUNCTION      0.00   536.38     0  01:50           0        5.45       0.193
  WS02006280           JUNCTION      0.00   366.28     0  01:42           0        1.87       0.003
  WS02006284           JUNCTION      0.10   366.31     0  01:42      0.0027        1.87       0.029
  WS02006287           JUNCTION      0.00   366.22     0  01:42           0        1.87       0.038
  WSF200               JUNCTION      0.00   549.54     0  01:57           0        5.27       0.042
  HS02004901           JUNCTION     18.12    18.12     0  01:36      0.0747      0.0749       2.401
  HS02004881           JUNCTION      7.67    74.61     0  01:43      0.0326       0.352       0.018
  HS02004876           JUNCTION     13.40    67.33     0  01:43      0.0628        0.32       0.168
  HS02004870           JUNCTION     14.05    54.07     0  01:43      0.0618       0.257       0.041
  HS02004862           JUNCTION     12.60    40.56     0  01:44      0.0678       0.196       0.087
  HS02004856           JUNCTION     10.50    27.98     0  01:43      0.0465       0.129       1.121
  HS02004852           JUNCTION      0.00    17.93     0  01:51           0      0.0829       0.064
  HS02004848           JUNCTION     27.80    27.80     0  01:53       0.149       0.149       0.028
  HS02004842           JUNCTION      0.00    10.09     0  01:58           0      0.0794      19.594
  HS02004837           JUNCTION     29.79    38.22     0  01:51       0.287       0.353       0.229
  HS02004830           JUNCTION      0.15    38.36     0  01:51     0.00423       0.344       0.361
  HS02004824           JUNCTION     33.49    71.74     0  01:54       0.195       0.538       0.100
  HS02004817           JUNCTION      0.60    72.33     0  01:54      0.0169       0.554       3.103
  HS02004807           JUNCTION     26.14    95.63     0  01:52       0.114       0.651       0.671
  HS02004802           JUNCTION      0.00    95.92     0  01:53           0       0.649       0.613
  HS02004799           JUNCTION     20.64   230.90     0  01:40      0.0921        1.05       0.259
  HS02004792           JUNCTION     88.99   210.33     0  01:39       0.391       0.955       0.041
  HS02004788           JUNCTION     29.98   122.04     0  01:40       0.175       0.565       0.069
  HS02004785           JUNCTION      0.15    92.14     0  01:39     0.00423       0.391       0.126
  HS02004777           JUNCTION      0.03    92.19     0  01:38    0.000846       0.391       1.344
  HS02004770           JUNCTION     74.74    92.54     0  01:38        0.32       0.393       0.790
  HS02004480           JUNCTION      0.00   273.94     0  01:41           0        1.24       0.088
  HS02004479           JUNCTION      0.00    43.16     0  01:41           0       0.201       0.365
  HS02004478           JUNCTION      0.00   366.17     0  01:42           0        1.87       0.020
  YS02001745           JUNCTION    221.95   408.73     0  02:02        2.35        2.36       0.492
  YS02001748           JUNCTION      0.04   591.13     0  02:03     0.00127        2.35       0.967
  YS02001751           JUNCTION      0.01   337.47     0  01:56     0.00031        2.31       1.030
  YS02001754           JUNCTION      0.26   245.44     0  02:05     0.00733         2.3       1.073
  YS02001762           JUNCTION      0.00   273.89     0  02:11           0        1.76       1.202
  YS02001765           JUNCTION      0.00   273.01     0  02:17           0        1.76       1.391
  YS02001767           JUNCTION      0.54   272.68     0  02:17      0.0151        1.78       2.035
  YS02001770           JUNCTION    273.83   442.63     0  02:49        2.63         3.1       1.013
  YS02001774           JUNCTION      0.00   443.45     0  02:49           0        1.77       1.436
  YS02001779           JUNCTION      0.01   443.96     0  02:49    0.000141        1.74       0.891
  YS02001882           JUNCTION      0.00    19.09     0  02:01           0      0.0148      16.765
  YS02001884           JUNCTION      0.00    50.42     0  02:01           0      0.0506      12.889
  YS02001759           JUNCTION    262.15   534.78     0  02:11        2.42        3.69       0.619
  YS02001887           JUNCTION    333.12   341.82     0  02:11        2.79        2.82       0.287
  YS02001890           JUNCTION      0.00   342.40     0  02:11           0        2.77       0.317
  YS02001898           JUNCTION      0.00   347.58     0  02:11           0        2.76       0.097
  YS02001901           JUNCTION      0.00   344.96     0  02:11           0        2.76       0.236
  YS02001904           JUNCTION      0.00   345.06     0  02:11           0        2.76       0.215
  YS02001907           JUNCTION      0.00   620.09     0  02:33           0        6.14       0.391
  YS02001910           JUNCTION      0.00   319.81     0  03:05           0        3.39       0.335
  YS02001915           JUNCTION    195.26   315.33     0  03:03        1.97         3.4       0.163
  YS02001918           JUNCTION      0.00   135.03     0  02:52           0        1.43       0.124
  YS02001619           JUNCTION    191.04   191.04     0  02:29        1.95        1.95       0.623
  YS02001629           JUNCTION      0.00   204.52     0  01:47           0        1.77       1.618
  YS02001641           JUNCTION      0.00   393.48     0  02:15           0        3.99       0.526
  YS02001644           JUNCTION    211.51  1140.20     0  02:47        2.26        10.9       0.238
  YS02001652           JUNCTION      0.00   292.40     0  02:17           0        2.03       1.106
  YS02001655           JUNCTION      0.15   368.73     0  01:55     0.00434        2.06       1.235
  YS02001920           JUNCTION      2.87   133.62     0  02:52      0.0809        1.44       0.198
  YS02001923           JUNCTION      0.04   115.05     0  02:53     0.00106        1.36       0.052
  YS02001926           JUNCTION      0.05   122.45     0  02:52     0.00147        1.36       0.223
  YS02001929           JUNCTION    105.11   105.11     0  02:59        1.36        1.36       0.037
  YS02001658           JUNCTION      0.00   644.04     0  02:00           0        2.09       1.090
  YS02001661           JUNCTION      0.00   636.19     0  02:18           0        2.66      -0.210
  YS02001664           JUNCTION    239.63   372.59     0  02:18        2.08        2.66       0.260
  YS02001622           JUNCTION      0.00   191.32     0  02:29           0        1.94       1.653
  YS02001633           JUNCTION    215.43   392.23     0  02:15        2.33        4.06       0.792
  YS02001649           JUNCTION      0.00   839.06     0  02:15           0        6.53       0.566
  YS02001757           JUNCTION      0.00  1560.26     0  02:14           0        7.41       1.261
  YS02001895           JUNCTION      0.00   342.90     0  02:11           0        2.77       0.182
  YS02001625           JUNCTION      0.00   207.26     0  01:47           0        1.91       2.080
  YS02163301           JUNCTION      0.00   209.08     0  02:00           0        1.76       1.361
  YS02163601           JUNCTION      0.11   392.60     0  02:15      0.0031        4.01       0.754
  YS02164001           JUNCTION      0.00   392.83     0  02:15           0        3.99       0.498
  YS02001647           JUNCTION      0.00   596.21     0  02:15           0        5.89       0.474
  YSB1154              JUNCTION     23.84    23.84     0  01:41       0.112       0.113       1.298
  YSB6556              JUNCTION      0.00    24.02     0  01:41           0       0.113       1.117
  YSB1174              JUNCTION     19.99    19.99     0  01:36       0.081      0.0815       1.597
  YSB1171              JUNCTION      0.00    43.60     0  01:40           0         0.2       3.266
  YS02006553           JUNCTION      0.00   620.10     0  02:32           0        6.13       0.250
  YS02006561           JUNCTION      0.00   899.37     0  02:31           0        8.64       0.008
  YS02006556           JUNCTION      0.00   620.00     0  02:32           0        6.14       0.179
  YS02006558           JUNCTION    286.64   899.62     0  02:31        2.56        8.67       0.059
  YS02001783           JUNCTION      0.00   899.39     0  02:30           0        8.64       0.025
  YS02001784           JUNCTION      1.06   900.53     0  02:30      0.0299        8.66       0.040
  YS02001786           JUNCTION      0.06   900.48     0  02:30     0.00159        8.66       0.037
  YS02001788           JUNCTION      0.07   900.63     0  02:30       0.002        8.66       0.021
  YS02001790           JUNCTION      0.15   900.81     0  02:30     0.00437        8.66       0.025
  YS02001791           JUNCTION      0.00   900.98     0  02:31           0        8.66       0.012
  YS02001793           JUNCTION      0.00   901.03     0  02:30           0        8.66       0.003
  WS02004139           JUNCTION      0.32   285.35     0  00:40     0.00905        7.67       0.431
  WSC                  OUTFALL       0.00   859.14     0  02:02           0        13.4       0.000
  3                    OUTFALL       0.00   250.55     0  00:00           0        2.73       0.000
  4                    OUTFALL       0.00     0.00     0  00:00           0           0       0.000 ltr
  5                    OUTFALL       0.00     0.00     0  00:00           0           0       0.000 ltr
  JK-storage           STORAGE       0.00   900.88     0  02:30           0        8.81      -0.337
  CC-storage           STORAGE       0.00  1560.31     0  02:15           0        3.98       1.657
  XR-storage           STORAGE     560.10   560.10     0  02:30        9.63        10.2      -0.000
  
  
  **********************
  Node Surcharge Summary
  **********************
  
  Surcharging occurs when water rises above the top of the highest conduit.
  ---------------------------------------------------------------------
                                               Max. Height   Min. Depth
                                   Hours       Above Crown    Below Rim
  Node                 Type      Surcharged         Meters       Meters
  ---------------------------------------------------------------------
  WS02006109           JUNCTION        0.92          0.152        1.668
  WS02006110           JUNCTION        0.30          0.013        1.837
  WS02006112           JUNCTION        0.52          0.111        1.569
  WS02006232           JUNCTION        0.20          0.008        1.472
  WS02006228           JUNCTION        0.90          0.180        2.020
  YS02001748           JUNCTION        5.66          1.140        0.050
  YS02001751           JUNCTION        5.83          1.059        0.141
  YS02001754           JUNCTION        5.97          0.951        0.199
  YS02001762           JUNCTION        6.15          1.037        0.113
  YS02001765           JUNCTION        6.13          0.985        0.115
  YS02001767           JUNCTION        6.13          0.940        0.090
  YS02001770           JUNCTION        6.11          0.887        0.033
  YS02001774           JUNCTION        6.14          0.979        0.071
  YS02001779           JUNCTION        5.96          0.680        0.000
  YS02001882           JUNCTION        0.91          0.374        0.456
  YS02001884           JUNCTION        0.97          0.412        0.458
  YS02001759           JUNCTION        6.15          1.074        0.136
  YS02001887           JUNCTION        1.09          0.506        0.444
  YS02001890           JUNCTION        1.13          0.529        0.231
  YS02001898           JUNCTION        0.83          0.306        0.434
  YS02001901           JUNCTION        1.04          0.461        0.409
  YS02001904           JUNCTION        1.01          0.432        0.418
  YS02001907           JUNCTION        1.70          0.759        0.191
  YS02001910           JUNCTION        1.19          0.558        0.542
  YS02001915           JUNCTION        0.89          0.352        0.648
  YS02001619           JUNCTION        5.85          0.610        0.000
  YS02001629           JUNCTION        5.87          0.470        0.000
  YS02001641           JUNCTION        6.13          0.972        0.128
  YS02001644           JUNCTION        6.13          0.920        0.000
  YS02001652           JUNCTION        6.05          1.097        0.033
  YS02001655           JUNCTION        5.87          1.200        0.000
  YS02001920           JUNCTION        0.26          0.052        1.088
  YS02001658           JUNCTION        5.70          1.300        0.000
  YS02001661           JUNCTION        0.26          1.177        0.213
  YS02001622           JUNCTION        5.90          0.620        0.000
  YS02001633           JUNCTION        6.12          0.963        0.097
  YS02001649           JUNCTION        6.14          1.050        0.000
  YS02001757           JUNCTION        6.19          1.182        0.028
  YS02001895           JUNCTION        0.86          0.333        0.417
  YS02001625           JUNCTION        6.09          0.780        0.000
  YS02163301           JUNCTION        6.11          0.902        0.128
  YS02163601           JUNCTION        6.15          1.047        0.033
  YS02164001           JUNCTION        6.12          0.980        0.120
  YS02001647           JUNCTION        6.08          0.806        0.094
  YS02006553           JUNCTION        1.76          0.762        0.428
  YS02006561           JUNCTION        0.59          0.126        1.024
  YS02006556           JUNCTION        1.42          0.672        0.678
  YS02006558           JUNCTION        1.37          0.650        0.750
  YS02001783           JUNCTION        1.45          1.227        0.373
  YS02001784           JUNCTION        1.47          1.064        0.426
  YS02001786           JUNCTION        1.46          1.309        0.121
  YS02001788           JUNCTION        1.45          1.023        0.457
  YS02001790           JUNCTION        2.83          1.157        0.000
  YS02001791           JUNCTION        2.96          0.834        1.086
  YS02001793           JUNCTION        3.15          1.013        1.587
  
  
  *********************
  Node Flooding Summary
  *********************
  
  Flooding refers to all water that overflows a node, whether it ponds or not.
  --------------------------------------------------------------------------
                                                             Total   Maximum
                                 Maximum   Time of Max       Flood    Ponded
                        Hours       Rate    Occurrence      Volume     Depth
  Node                 Flooded       LPS   days hr:min    10^6 ltr    Meters
  --------------------------------------------------------------------------
  YS02001779              3.42    443.68      0  02:49       1.716     0.000
  YS02001619              0.01     25.50      0  02:02       0.000     0.000
  YS02001629              0.01     36.42      0  02:03       0.000     0.000
  YS02001644              5.58   1140.14      0  02:47       9.633     0.000
  YS02001655              0.01     62.21      0  02:01       0.000     0.000
  YS02001658              0.01    335.21      0  02:01       0.001     0.000
  YS02001622              0.01     41.44      0  02:01       0.000     0.000
  YS02001649              0.09     42.98      0  02:20       0.004     0.000
  YS02001625              0.94     49.11      0  02:30       0.111     0.000
  YS02001790              0.01    114.60      0  01:58       0.000     0.000
  JK-storage              2.52    600.86      0  02:30       3.136     0.000
  XR-storage              3.75    275.10      0  02:30       1.814     0.000
  
  
  **********************
  Storage Volume Summary
  **********************
  
  --------------------------------------------------------------------------------------------------
                         Average     Avg  Evap Exfil       Maximum     Max    Time of Max    Maximum
                          Volume    Pcnt  Pcnt  Pcnt        Volume    Pcnt     Occurrence    Outflow
  Storage Unit           1000 m3    Full  Loss  Loss       1000 m3    Full    days hr:min        LPS
  --------------------------------------------------------------------------------------------------
  JK-storage               0.198      68     0     0         0.291     100       0  01:59     300.00
  CC-storage               3.119      20     0     0         3.912      25       0  02:43      85.51
  XR-storage               0.878      95     0     0         0.926     100       0  02:07     285.00
  
  
  ***********************
  Outfall Loading Summary
  ***********************
  
  -----------------------------------------------------------
                         Flow       Avg       Max       Total
                         Freq      Flow      Flow      Volume
  Outfall Node           Pcnt       LPS       LPS    10^6 ltr
  -----------------------------------------------------------
  WSC                   99.99    536.45    859.14      13.417
  3                     88.85    157.09    250.55       2.725
  4                      0.00      0.00      0.00       0.000
  5                      0.00      0.00      0.00       0.000
  -----------------------------------------------------------
  System                47.21    693.54   1052.26      16.142
  
  
  ********************
  Link Flow Summary
  ********************
  
  -----------------------------------------------------------------------------
                                 Maximum  Time of Max   Maximum    Max/    Max/
                                  |Flow|   Occurrence   |Veloc|    Full    Full
  Link                 Type          LPS  days hr:min     m/sec    Flow   Depth
  -----------------------------------------------------------------------------
  WS02003066WSF200     CONDUIT    549.54     0  01:57      2.72    0.09    0.23
  WS02006287WS02006284 CONDUIT    366.21     0  01:42      1.96    0.17    0.29
  WS02006284WS02006280 CONDUIT    366.28     0  01:42      2.20    0.15    0.26
  WS02006280WS02006229 CONDUIT    366.28     0  01:42      3.55    0.08    0.19
  WS02006229WS02006228 CONDUIT    536.20     0  01:50      1.07    1.78    1.00
  WS02006256WS02006235 CONDUIT    166.25     0  00:01      2.58    1.76    1.00
  WS02006253WS02006251 CONDUIT     76.38     0  01:43      0.60    0.23    0.36
  WS02006252WS02006251 CONDUIT      0.00     0  00:00      0.00    0.00    0.00
  WS02006251WS02006249 CONDUIT     76.34     0  01:44      0.66    0.22    0.35
  WS02006249WS02006248 CONDUIT     75.90     0  01:44      0.76    0.42    0.33
  WS02006248WS02006247 CONDUIT     74.91     0  01:43      0.73    0.16    0.38
  WS02006247WS02006245 CONDUIT     73.99     0  01:53      0.67    0.59    0.43
  WS02006245WS02006243 CONDUIT     73.98     0  01:53      0.79    0.22    0.47
  WS02006243WS02006242 CONDUIT     74.36     0  01:57      0.63    0.16    0.60
  WS02006242WS02006240 CONDUIT     75.43     0  01:59      0.64    0.30    0.70
  WS02006240WS02006239 CONDUIT     76.55     0  02:03      0.58    0.24    0.72
  WS02006239WS02006238 CONDUIT     78.21     0  02:05      0.67    0.25    0.84
  WS02006238WS02006235 CONDUIT     94.85     0  00:11      1.25    0.21    0.88
  WS02006235WS02006234 CONDUIT    191.14     0  02:08      0.93    2.02    0.84
  WS02006234WS02006232 CONDUIT    193.07     0  02:08      1.13    0.39    0.93
  WS02006232WS02006231 CONDUIT    194.67     0  02:09      0.67    0.41    0.93
  WS02006231WS02006230 CONDUIT    196.98     0  02:09      1.01    2.99    0.86
  WS02006230WS02006229 CONDUIT    209.35     0  02:08      0.86    4.66    1.00
  WS02006228WS02006109 CONDUIT    536.20     0  01:50      1.07    2.34    1.00
  WS02006116WS02004401 CONDUIT    551.71     0  01:55      0.78    0.76    0.85
  WS02006115WS02006116 CONDUIT    554.23     0  01:54      0.87    0.71    0.77
  WS02006113WS02006111 CONDUIT    558.34     0  01:52      2.46    0.67    0.46
  WS02006112WS02006115 CONDUIT    569.34     0  01:54      0.78    0.34    0.88
  WS02006111WS02006112 CONDUIT    542.49     0  01:50      1.51    0.26    0.67
  WS02006110WS02006113 CONDUIT    537.75     0  01:50      1.27    0.49    0.78
  WS02006109WS02006110 CONDUIT    537.43     0  01:50      1.07    1.03    1.00
  WS02004411WS02004412 CONDUIT    549.76     0  01:56      0.93    0.78    0.70
  WS02004401WS02004402 CONDUIT    551.92     0  01:55      0.77    0.66    0.87
  WS02004413WS02003067 CONDUIT    549.43     0  01:57      1.12    0.24    0.60
  WS02004412WS02004413 CONDUIT    549.64     0  01:57      0.83    0.37    0.78
  WS02004410WS02004411 CONDUIT    549.90     0  01:56      0.95    0.75    0.69
  WS02004409WS02004410 CONDUIT    550.12     0  01:56      0.96    0.71    0.68
  WS02004407WS02004409 CONDUIT    550.54     0  01:56      1.47    0.20    0.49
  WS02004406WS02004407 CONDUIT    551.04     0  01:55      1.05    0.25    0.63
  WS02004405WS02004406 CONDUIT    551.49     0  01:55      0.71    1.09    0.96
  WS02004404WS02004405 CONDUIT    552.15     0  01:55      0.84    5.41    0.97
  WS02004403WS02004404 CONDUIT    552.09     0  01:55      0.74    0.40    0.94
  WS02004402WS02004403 CONDUIT    552.56     0  01:55      0.75    0.79    0.89
  WS02004139WS02001211 CONDUIT    285.87     0  02:28      0.49    0.36    0.54
  WS02004138WS02004139 CONDUIT    285.03     0  00:40      1.27    0.06    0.39
  WS02003067WS02003066 CONDUIT    549.50     0  01:57      1.22    0.18    0.42
  WS02001213WS02003059 CONDUIT    295.50     0  02:27      0.59    0.49    0.73
  WS02001212WS02001213 CONDUIT    294.45     0  02:27      1.19    0.45    0.42
  WS02001211WS02001212 CONDUIT    293.86     0  02:28      0.67    0.22    0.59
  WS02003072WS02003073 CONDUIT    857.34     0  02:01      1.67    1.85    0.46
  WS02003069WS02003072 CONDUIT    857.39     0  02:00      1.58    0.41    0.49
  WS02003060WS02003069 CONDUIT    857.23     0  02:00      1.82    0.34    0.43
  WS02003059WS02003060 CONDUIT    296.90     0  02:26      0.82    0.19    0.63
  HS02004901HS02004770 CONDUIT     17.82     0  01:38      0.06    0.07    0.40
  HS02004876HS02004881 CONDUIT     67.33     0  01:43      0.89    0.72    0.11
  HS02004870HS02004876 CONDUIT     54.05     0  01:43      0.61    0.04    0.13
  HS02004842HS02004848 CONDUIT     10.09     0  01:58      0.05    0.01    0.30
  HS02004837HS02004842 CONDUIT     10.33     0  02:00      0.41    0.01    0.31
  HS02004830HS02004837 CONDUIT     38.21     0  01:51      0.54    0.04    0.10
  HS02004824HS02004830 CONDUIT     38.37     0  01:52      0.57    0.05    0.10
  HS02004817HS02004824 CONDUIT     71.73     0  01:54      0.22    0.03    0.46
  HS02004770HS02004777 CONDUIT     92.16     0  01:38      0.32    0.17    0.41
  HS02004799HS02004480 CONDUIT    230.85     0  01:40      0.78    0.29    0.42
  HS02004792HS02004799 CONDUIT    210.29     0  01:40      0.89    0.13    0.34
  HS02004788HS02004792 CONDUIT    122.00     0  01:40      1.02    0.08    0.17
  HS02004785HS02004788 CONDUIT     92.09     0  01:40      0.67    0.69    0.20
  HS02004777HS02004785 CONDUIT     91.99     0  01:39      0.39    0.11    0.34
  HS02004480HS02004478 CONDUIT    273.63     0  01:41      1.21    1.15    0.32
  HS02004479HS02004480 CONDUIT     43.48     0  01:42      0.30    0.04    0.41
  HS02004862HS02004870 CONDUIT     40.54     0  01:45      0.62    0.04    0.09
  HS02004848HS02004852 CONDUIT     17.93     0  01:51      0.42    0.02    0.06
  HS02004856HS02004862 CONDUIT     27.96     0  01:44      0.46    0.03    0.09
  HS02004852HS02004856 CONDUIT     17.92     0  01:52      0.22    0.02    0.12
  HS02004802HS02004478 CONDUIT     96.20     0  01:53      0.42    0.08    0.34
  HS02004478WS02006287 CONDUIT    366.22     0  01:42      1.67    0.10    0.24
  HS02004817HS02004807 CONDUIT     72.77     0  01:55      0.17    0.04    0.61
  HS02004807HS02004802 CONDUIT     95.92     0  01:53      0.36    0.18    0.39
  YS02001759YS02001757 CONDUIT    535.43     0  02:11      0.68    0.38    1.00
  YS02001762YS02001759 CONDUIT    275.43     0  02:08      0.35    0.32    1.00
  YS02001765YS02001762 CONDUIT    273.89     0  02:11      0.35    0.26    1.00
  YS02001770YS02001767 CONDUIT    272.14     0  02:17      0.42    1.08    1.00
  YS02001774YS02001770 CONDUIT    443.45     0  02:49      0.56    0.28    1.00
  YS02001779YS02001774 CONDUIT    443.96     0  02:49      0.57    0.22    1.00
  YS02001649YS02001757 CONDUIT    839.50     0  02:15      1.07    0.51    1.00
  YS02001767YS02001765 CONDUIT    273.01     0  02:17      0.38    0.34    1.00
  YS02006561YS02001783 CONDUIT    899.39     0  02:30      2.12    0.47    1.00
  YS02001783YS02001784 CONDUIT    899.47     0  02:30      1.79    1.24    1.00
  YS02001784YS02001785 CONDUIT    900.42     0  02:30      1.79    2.10    1.00
  YS02001788YS02001790 CONDUIT    900.66     0  02:30      2.31    0.66    1.00
  YS02001790YS02001791 CONDUIT    900.98     0  02:31      2.83    0.98    1.00
  YS02001791YS02001793 CONDUIT    901.03     0  02:30      5.71    0.39    1.00
  YS02001910YS02001907 CONDUIT    319.78     0  03:05      0.49    0.18    1.00
  YS02001786YS02001788 CONDUIT    900.56     0  02:30      2.22    1.74    1.00
  YS02001915YS02001910 CONDUIT    319.81     0  03:05      0.58    0.16    1.00
  YS02001918YS02001915 CONDUIT    144.50     0  03:07      0.44    0.08    1.00
  YS02001923YS02001920 CONDUIT    130.75     0  02:52      0.68    0.06    0.90
  YS02001926YS02001923 CONDUIT    115.01     0  02:53      0.78    0.16    0.61
  YS02001929YS02001926 CONDUIT    122.39     0  02:52      0.83    0.06    0.49
  YS02001920YS02001918 CONDUIT    135.03     0  02:52      0.67    0.13    1.00
  YS02001629YS02163301 CONDUIT    209.08     0  02:00      0.27    0.26    1.00
  YS02001619YS02001622 CONDUIT    191.32     0  02:29      0.73    0.28    1.00
  YS02001622YS02001625 CONDUIT    207.26     0  01:47      0.36    0.11    1.00
  YS02001625YS02001629 CONDUIT    204.52     0  01:47      0.30    0.10    1.00
  YS02163301YS02001633 CONDUIT    209.20     0  02:00      0.27    0.20    1.00
  YS02163601YS02164001 CONDUIT    392.83     0  02:15      0.50    0.35    1.00
  YS02164001YS02001641 CONDUIT    393.48     0  02:15      0.50    0.54    1.00
  YS02001641YS02001644 CONDUIT    393.81     0  02:15      0.50    1.27    1.00
  YS02001647YS02001649 CONDUIT    596.39     0  02:15      0.76    0.31    1.00
  YS02006553YS02006556 CONDUIT    620.00     0  02:32      0.79    0.53    1.00
  YS02006556YS02006558 CONDUIT    620.18     0  02:32      0.79    0.49    1.00
  YSB6556YSB1171       CONDUIT     24.43     0  01:43      0.09    0.03    0.68
  YS02001907YS02006553 CONDUIT    620.10     0  02:32      0.69    0.73    1.00
  YS02006558YS02006561 CONDUIT    899.37     0  02:31      3.18    1.99    1.00
  YS02001633YS02163601 CONDUIT    392.49     0  02:15      0.50    0.41    1.00
  YS02001644YS02001647 CONDUIT    596.21     0  02:15      0.76    0.35    1.00
  YS02001745YS02001748 CONDUIT    591.08     0  02:03      1.65    0.23    0.95
  YS02001748YS02001751 CONDUIT    337.46     0  01:56      1.23    0.17    1.00
  YS02001751YS02001754 CONDUIT    245.18     0  02:05      1.05    0.12    1.00
  YS02001754YS02001757 CONDUIT    237.66     0  02:06      0.33    0.10    1.00
  YS02001882YS02001884 CONDUIT     19.09     0  02:01      0.15    0.02    1.00
  YS02001884YS02001887 CONDUIT     50.42     0  02:01      0.11    0.07    1.00
  YS02001890YS02001895 CONDUIT    342.90     0  02:11      0.47    0.16    1.00
  YS02001895YS02001898 CONDUIT    347.58     0  02:11      0.60    0.60    1.00
  YS02001898YS02001901 CONDUIT    344.96     0  02:11      0.53    0.22    1.00
  YS02001901YS02001904 CONDUIT    345.06     0  02:11      0.49    0.54    1.00
  YS02001904YS02001907 CONDUIT    341.89     0  02:11      0.44    0.12    1.00
  YS02001887YS02001890 CONDUIT    342.40     0  02:11      0.44    0.59    1.00
  YS02001652YS02001649 CONDUIT    293.36     0  02:17      0.61    0.15    1.00
  YS02001655YS02001652 CONDUIT    292.40     0  02:17      1.11    0.14    1.00
  YS02001658YS02001655 CONDUIT    368.57     0  01:55      1.42    0.16    1.00
  YS02001661YS02001658 CONDUIT    644.04     0  02:00      1.73    0.25    1.00
  YS02001664YS02001661 CONDUIT    636.19     0  02:18      1.64    0.20    0.73
  YSB1154YSB6556       CONDUIT     24.02     0  01:41      0.15    0.04    0.57
  YSB1174YSB1171       CONDUIT     20.02     0  01:36      0.07    0.03    0.68
  YSB1171HS02004479    CONDUIT     43.16     0  01:41      0.54    0.03    0.54
  HS02004881HS02006253 CONDUIT     74.61     0  01:43      2.14    0.01    0.05
  YS02001793JiankangQianchi CONDUIT    900.88     0  02:30     13.01    0.07    1.00
  YS02001757CaochengTiaoxuchi CONDUIT   1560.31     0  02:15      2.45    0.69    1.00
  WSF200WS02003060     CONDUIT    549.64     0  01:58      1.66    0.12    0.33
  1                    CONDUIT    859.14     0  02:02      3.19    0.30    0.38
  2                    CONDUIT      0.00     0  00:00      0.00    0.00    0.00
  3                    CONDUIT    250.55     0  00:00      8.26    0.40    0.46
  4                    CONDUIT      0.00     0  00:00      0.00    0.00    0.00
  CC-Pump-1            PUMP         0.00     0  00:00              0.00
  CC-Pump-2            PUMP         0.00     0  00:00              0.00
  JK-Pump-1            PUMP       300.00     0  00:00              1.00
  JK-Pump-2            PUMP       300.00     0  01:36              1.00
  XR-Pump-1            PUMP         0.00     0  00:00              0.00
  XR-Pump-2            PUMP        95.00     0  00:40              1.00
  XR-Pump-3            PUMP        95.00     0  00:20              1.00
  XR-Pump-4            PUMP        95.00     0  00:20              1.00
  
  
  ***************************
  Flow Classification Summary
  ***************************
  
  -------------------------------------------------------------------------------------
                      Adjusted    ---------- Fraction of Time in Flow Class ---------- 
                       /Actual         Up    Down  Sub   Sup   Up    Down  Norm  Inlet 
  Conduit               Length    Dry  Dry   Dry   Crit  Crit  Crit  Crit  Ltd   Ctrl  
  -------------------------------------------------------------------------------------
  WS02003066WSF200        1.00   0.08  0.00  0.00  0.00  0.92  0.00  0.00  0.71  0.00
  WS02006287WS02006284    1.00   0.05  0.01  0.00  0.51  0.43  0.00  0.00  0.72  0.00
  WS02006284WS02006280    1.00   0.06  0.00  0.00  0.00  0.00  0.00  0.94  0.00  0.00
  WS02006280WS02006229    1.00   0.06  0.00  0.00  0.00  0.00  0.00  0.94  0.00  0.00
  WS02006229WS02006228    1.00   0.00  0.00  0.00  0.98  0.00  0.00  0.02  0.00  0.00
  WS02006256WS02006235    1.00   0.00  0.00  0.00  1.00  0.00  0.00  0.00  0.00  0.00
  WS02006253WS02006251    1.00   0.04  0.01  0.00  0.95  0.00  0.00  0.00  0.00  0.00
  WS02006252WS02006251    1.00   1.00  0.00  0.00  0.00  0.00  0.00  0.00  0.00  0.00
  WS02006251WS02006249    1.00   0.00  0.00  0.00  1.00  0.00  0.00  0.00  0.83  0.00
  WS02006249WS02006248    1.00   0.00  0.03  0.00  0.20  0.00  0.77  0.00  0.00  0.00
  WS02006248WS02006247    1.00   0.03  0.00  0.00  0.97  0.00  0.00  0.00  0.73  0.00
  WS02006247WS02006245    1.00   0.02  0.00  0.00  0.97  0.00  0.00  0.00  0.00  0.00
  WS02006245WS02006243    1.00   0.02  0.00  0.00  0.95  0.00  0.00  0.03  0.13  0.00
  WS02006243WS02006242    1.00   0.01  0.00  0.00  0.99  0.00  0.00  0.00  0.15  0.00
  WS02006242WS02006240    1.00   0.00  0.00  0.00  0.99  0.00  0.00  0.00  0.00  0.00
  WS02006240WS02006239    1.00   0.00  0.00  0.00  0.97  0.00  0.00  0.03  0.01  0.00
  WS02006239WS02006238    1.00   0.00  0.00  0.00  1.00  0.00  0.00  0.00  0.00  0.00
  WS02006238WS02006235    1.00   0.00  0.00  0.00  1.00  0.00  0.00  0.00  0.00  0.00
  WS02006235WS02006234    1.00   0.00  0.00  0.00  0.97  0.00  0.03  0.00  0.00  0.00
  WS02006234WS02006232    1.00   0.00  0.00  0.00  1.00  0.00  0.00  0.00  0.06  0.00
  WS02006232WS02006231    1.00   0.00  0.00  0.00  0.99  0.00  0.01  0.00  0.00  0.00
  WS02006231WS02006230    1.00   0.00  0.00  0.00  0.32  0.00  0.68  0.00  0.00  0.00
  WS02006230WS02006229    1.00   0.00  0.00  0.00  0.98  0.00  0.00  0.02  0.01  0.00
  WS02006228WS02006109    1.00   0.00  0.00  0.00  1.00  0.00  0.00  0.00  0.00  0.00
  WS02006116WS02004401    1.00   0.03  0.00  0.00  0.97  0.00  0.00  0.00  0.00  0.00
  WS02006115WS02006116    1.00   0.03  0.00  0.00  0.96  0.00  0.00  0.01  0.00  0.00
  WS02006113WS02006111    1.00   0.02  0.00  0.00  0.00  0.97  0.00  0.00  0.19  0.00
  WS02006112WS02006115    1.00   0.03  0.00  0.00  0.97  0.00  0.00  0.00  0.00  0.00
  WS02006111WS02006112    1.00   0.03  0.00  0.00  0.97  0.00  0.00  0.00  0.98  0.00
  WS02006110WS02006113    1.00   0.01  0.01  0.00  0.98  0.00  0.00  0.00  0.00  0.00
  WS02006109WS02006110    1.00   0.00  0.01  0.00  0.98  0.00  0.01  0.00  0.00  0.00
  WS02004411WS02004412    1.00   0.05  0.00  0.00  0.95  0.00  0.00  0.00  0.00  0.00
  WS02004401WS02004402    1.00   0.03  0.00  0.00  0.97  0.00  0.00  0.00  0.00  0.00
  WS02004413WS02003067    1.00   0.05  0.02  0.00  0.00  0.00  0.93  0.00  0.00  0.00
  WS02004412WS02004413    1.00   0.05  0.00  0.00  0.95  0.00  0.00  0.00  0.03  0.00
  WS02004410WS02004411    1.00   0.05  0.00  0.00  0.95  0.00  0.00  0.00  0.03  0.00
  WS02004409WS02004410    1.00   0.05  0.00  0.00  0.95  0.00  0.00  0.00  0.01  0.00
  WS02004407WS02004409    1.00   0.05  0.00  0.00  0.95  0.00  0.00  0.00  0.89  0.00
  WS02004406WS02004407    1.00   0.00  0.05  0.00  0.95  0.00  0.00  0.00  0.00  0.00
  WS02004405WS02004406    1.00   0.00  0.00  0.00  1.00  0.00  0.00  0.00  0.01  0.00
  WS02004404WS02004405    1.00   0.00  0.00  0.00  1.00  0.00  0.00  0.00  0.00  0.00
  WS02004403WS02004404    1.00   0.00  0.03  0.00  0.97  0.00  0.00  0.00  0.01  0.00
  WS02004402WS02004403    1.00   0.03  0.00  0.00  0.97  0.00  0.00  0.00  0.00  0.00
  WS02004139WS02001211    1.00   0.00  0.01  0.00  0.99  0.00  0.00  0.00  0.00  0.00
  WS02004138WS02004139    1.00   0.02  0.01  0.00  0.97  0.00  0.00  0.00  0.98  0.00
  WS02003067WS02003066    1.00   0.07  0.01  0.00  0.92  0.00  0.00  0.00  0.00  0.00
  WS02001213WS02003059    1.00   0.00  0.01  0.00  0.99  0.00  0.00  0.00  0.00  0.00
  WS02001212WS02001213    1.00   0.03  0.00  0.00  0.52  0.00  0.45  0.00  0.00  0.00
  WS02001211WS02001212    1.00   0.00  0.03  0.00  0.97  0.00  0.00  0.00  0.00  0.00
  WS02003072WS02003073    1.00   0.00  0.00  0.00  0.00  0.00  0.00  1.00  0.00  0.00
  WS02003069WS02003072    1.00   0.00  0.00  0.00  0.99  0.01  0.00  0.00  0.18  0.00
  WS02003060WS02003069    1.00   0.00  0.00  0.00  0.99  0.01  0.00  0.00  0.04  0.00
  WS02003059WS02003060    1.00   0.00  0.00  0.00  0.99  0.01  0.00  0.00  0.04  0.00
  HS02004901HS02004770    1.00   0.05  0.00  0.00  0.95  0.00  0.00  0.00  0.00  0.00
  HS02004876HS02004881    1.00   0.03  0.00  0.00  0.87  0.10  0.00  0.00  0.00  0.00
  HS02004870HS02004876    1.00   0.01  0.00  0.00  0.99  0.00  0.00  0.00  0.95  0.00
  HS02004842HS02004848    1.00   0.00  0.05  0.00  0.95  0.00  0.00  0.00  0.59  0.00
  HS02004837HS02004842    1.00   0.00  0.00  0.00  0.99  0.01  0.00  0.00  0.11  0.00
  HS02004830HS02004837    1.00   0.00  0.00  0.00  1.00  0.00  0.00  0.00  0.99  0.00
  HS02004824HS02004830    1.00   0.00  0.00  0.00  1.00  0.00  0.00  0.00  0.00  0.00
  HS02004817HS02004824    1.00   0.00  0.00  0.00  1.00  0.00  0.00  0.00  1.00  0.00
  HS02004770HS02004777    1.00   0.00  0.05  0.00  0.95  0.00  0.00  0.00  0.02  0.00
  HS02004799HS02004480    1.00   0.00  0.03  0.00  0.94  0.00  0.03  0.00  0.00  0.00
  HS02004792HS02004799    1.00   0.00  0.00  0.00  0.98  0.02  0.00  0.00  0.98  0.00
  HS02004788HS02004792    1.00   0.00  0.00  0.00  0.99  0.01  0.00  0.00  0.98  0.00
  HS02004785HS02004788    1.00   0.00  0.00  0.00  1.00  0.00  0.00  0.00  0.00  0.00
  HS02004777HS02004785    1.00   0.00  0.00  0.00  1.00  0.00  0.00  0.00  0.12  0.00
  HS02004480HS02004478    1.00   0.05  0.00  0.00  0.57  0.00  0.00  0.38  0.00  0.00
  HS02004479HS02004480    1.00   0.03  0.00  0.00  0.97  0.00  0.00  0.00  0.11  0.00
  HS02004862HS02004870    1.00   0.00  0.00  0.00  1.00  0.00  0.00  0.00  0.03  0.00
  HS02004848HS02004852    1.00   0.05  0.00  0.00  0.95  0.00  0.00  0.00  0.78  0.00
  HS02004856HS02004862    1.00   0.00  0.06  0.00  0.94  0.00  0.00  0.00  0.83  0.00
  HS02004852HS02004856    1.00   0.05  0.00  0.00  0.95  0.00  0.00  0.00  0.86  0.00
  HS02004802HS02004478    1.00   0.05  0.00  0.00  0.94  0.00  0.00  0.00  0.02  0.00
  HS02004478WS02006287    1.00   0.06  0.00  0.00  0.69  0.25  0.00  0.00  0.69  0.00
  HS02004817HS02004807    1.00   0.00  0.05  0.00  0.95  0.00  0.00  0.00  0.01  0.00
  HS02004807HS02004802    1.00   0.05  0.00  0.00  0.94  0.00  0.00  0.00  0.00  0.00
  YS02001759YS02001757    1.00   0.00  0.00  0.00  1.00  0.00  0.00  0.00  0.16  0.00
  YS02001762YS02001759    1.00   0.00  0.00  0.00  1.00  0.00  0.00  0.00  0.03  0.00
  YS02001765YS02001762    1.00   0.00  0.00  0.00  1.00  0.00  0.00  0.00  0.13  0.00
  YS02001770YS02001767    1.00   0.00  0.00  0.00  1.00  0.00  0.00  0.00  0.00  0.00
  YS02001774YS02001770    1.00   0.00  0.05  0.00  0.95  0.00  0.00  0.00  0.03  0.00
  YS02001779YS02001774    1.00   0.00  0.00  0.00  1.00  0.00  0.00  0.00  0.17  0.00
  YS02001649YS02001757    1.00   0.00  0.00  0.00  1.00  0.00  0.00  0.00  0.16  0.00
  YS02001767YS02001765    1.00   0.00  0.00  0.00  1.00  0.00  0.00  0.00  0.00  0.00
  YS02006561YS02001783    1.00   0.06  0.00  0.00  0.55  0.39  0.00  0.00  0.58  0.00
  YS02001783YS02001784    1.00   0.00  0.06  0.00  0.94  0.00  0.00  0.00  0.00  0.00
  YS02001784YS02001785    1.00   0.00  0.00  0.00  1.00  0.00  0.00  0.00  0.16  0.00
  YS02001788YS02001790    1.00   0.00  0.00  0.00  0.64  0.36  0.00  0.00  0.52  0.00
  YS02001790YS02001791    1.00   0.00  0.00  0.00  0.61  0.39  0.00  0.00  0.39  0.00
  YS02001791YS02001793    1.00   0.00  0.00  0.00  0.62  0.38  0.00  0.00  0.02  0.00
  YS02001910YS02001907    1.00   0.00  0.00  0.00  0.97  0.00  0.00  0.03  0.12  0.00
  YS02001786YS02001788    1.00   0.00  0.00  0.00  0.61  0.39  0.00  0.00  0.00  0.00
  YS02001915YS02001910    1.00   0.00  0.00  0.00  0.98  0.02  0.00  0.00  0.14  0.00
  YS02001918YS02001915    1.00   0.00  0.01  0.00  0.97  0.02  0.00  0.00  0.58  0.00
  YS02001923YS02001920    1.00   0.00  0.00  0.00  1.00  0.00  0.00  0.00  0.83  0.00
  YS02001926YS02001923    1.00   0.00  0.04  0.00  0.19  0.00  0.77  0.00  0.00  0.00
  YS02001929YS02001926    1.00   0.00  0.05  0.00  0.95  0.00  0.00  0.00  0.79  0.00
  YS02001920YS02001918    1.00   0.00  0.01  0.00  0.99  0.00  0.00  0.00  0.00  0.00
  YS02001629YS02163301    1.00   0.06  0.00  0.00  0.94  0.00  0.00  0.00  0.00  0.00
  YS02001619YS02001622    1.00   0.05  0.00  0.00  0.95  0.00  0.00  0.00  0.00  0.00
  YS02001622YS02001625    1.00   0.05  0.00  0.00  0.95  0.00  0.00  0.00  0.04  0.00
  YS02001625YS02001629    1.00   0.05  0.01  0.00  0.92  0.00  0.01  0.00  0.00  0.00
  YS02163301YS02001633    1.00   0.00  0.06  0.00  0.94  0.00  0.00  0.00  0.00  0.00
  YS02163601YS02164001    1.00   0.00  0.04  0.00  0.96  0.00  0.00  0.00  0.00  0.00
  YS02164001YS02001641    1.00   0.01  0.03  0.00  0.96  0.00  0.00  0.00  0.06  0.00
  YS02001641YS02001644    1.00   0.00  0.01  0.00  0.99  0.00  0.00  0.00  0.00  0.00
  YS02001647YS02001649    1.00   0.00  0.06  0.00  0.94  0.00  0.00  0.00  0.01  0.00
  YS02006553YS02006556    1.00   0.02  0.00  0.00  0.98  0.00  0.00  0.00  0.03  0.00
  YS02006556YS02006558    1.00   0.00  0.00  0.00  1.00  0.00  0.00  0.00  0.00  0.00
  YSB6556YSB1171          1.00   0.03  0.02  0.00  0.95  0.00  0.00  0.00  0.00  0.00
  YS02001907YS02006553    1.00   0.00  0.03  0.00  0.97  0.00  0.00  0.00  0.00  0.00
  YS02006558YS02006561    1.00   0.06  0.00  0.00  0.24  0.69  0.00  0.00  0.50  0.00
  YS02001633YS02163601    1.00   0.00  0.01  0.00  0.99  0.00  0.00  0.00  0.15  0.00
  YS02001644YS02001647    1.00   0.00  0.06  0.00  0.94  0.00  0.00  0.00  0.00  0.00
  YS02001745YS02001748    1.00   0.00  0.00  0.00  0.90  0.00  0.00  0.10  0.03  0.00
  YS02001748YS02001751    1.00   0.00  0.00  0.00  0.98  0.02  0.00  0.00  0.14  0.00
  YS02001751YS02001754    1.00   0.00  0.00  0.00  0.93  0.00  0.00  0.07  0.01  0.00
  YS02001754YS02001757    1.00   0.00  0.00  0.00  0.99  0.01  0.00  0.00  0.17  0.00
  YS02001882YS02001884    1.00   0.06  0.00  0.00  0.94  0.00  0.00  0.00  0.00  0.00
  YS02001884YS02001887    1.00   0.04  0.01  0.00  0.95  0.00  0.00  0.00  0.00  0.00
  YS02001890YS02001895    1.00   0.00  0.06  0.00  0.94  0.00  0.00  0.00  0.00  0.00
  YS02001895YS02001898    1.00   0.06  0.00  0.00  0.93  0.00  0.01  0.00  0.00  0.00
  YS02001898YS02001901    1.00   0.06  0.00  0.00  0.94  0.00  0.00  0.00  0.01  0.00
  YS02001901YS02001904    1.00   0.06  0.00  0.00  0.94  0.00  0.00  0.00  0.00  0.00
  YS02001904YS02001907    1.00   0.00  0.06  0.00  0.94  0.00  0.00  0.00  0.00  0.00
  YS02001887YS02001890    1.00   0.00  0.00  0.00  0.97  0.00  0.03  0.00  0.00  0.00
  YS02001652YS02001649    1.00   0.00  0.00  0.00  1.00  0.00  0.00  0.00  0.15  0.00
  YS02001655YS02001652    1.00   0.00  0.00  0.00  0.93  0.00  0.00  0.07  0.01  0.00
  YS02001658YS02001655    1.00   0.00  0.06  0.00  0.92  0.02  0.00  0.00  0.02  0.00
  YS02001661YS02001658    1.00   0.06  0.00  0.00  0.90  0.05  0.00  0.00  0.03  0.00
  YS02001664YS02001661    1.00   0.05  0.00  0.00  0.87  0.08  0.00  0.00  0.14  0.00
  YSB1154YSB6556          1.00   0.05  0.00  0.00  0.95  0.00  0.00  0.00  0.01  0.00
  YSB1174YSB1171          1.00   0.04  0.01  0.00  0.95  0.00  0.00  0.00  0.00  0.00
  YSB1171HS02004479       1.00   0.03  0.00  0.00  0.96  0.00  0.00  0.00  0.10  0.00
  HS02004881HS02006253    1.00   0.04  0.00  0.00  0.00  0.00  0.00  0.96  0.00  0.00
  YS02001793JiankangQianchi    1.00   0.00  0.00  0.00  0.79  0.21  0.00  0.00  0.12  0.00
  YS02001757CaochengTiaoxuchi    1.00   0.00  0.07  0.00  0.91  0.02  0.00  0.00  0.00  0.00
  WSF200WS02003060        1.00   0.00  0.08  0.00  0.92  0.00  0.00  0.00  0.62  0.00
  1                       1.00   0.00  0.00  0.00  0.00  1.00  0.00  0.00  0.55  0.00
  2                       1.00   1.00  0.00  0.00  0.00  0.00  0.00  0.00  0.00  0.00
  3                       1.00   0.11  0.00  0.00  0.00  0.89  0.00  0.00  0.18  0.00
  4                       1.00   1.00  0.00  0.00  0.00  0.00  0.00  0.00  0.00  0.00
  
  
  *************************
  Conduit Surcharge Summary
  *************************
  
  ----------------------------------------------------------------------------
                                                           Hours        Hours 
                         --------- Hours Full --------   Above Full   Capacity
  Conduit                Both Ends  Upstream  Dnstream   Normal Flow   Limited
  ----------------------------------------------------------------------------
  WS02006229WS02006228        0.90      0.94      0.90      1.53         0.90
  WS02006256WS02006235        6.41      6.41      7.10      6.09         0.01
  WS02006235WS02006234        0.01      0.01      0.01      6.10         0.01
  WS02006234WS02006232        0.01      0.01      0.20      0.01         0.01
  WS02006232WS02006231        0.01      0.01      0.20      0.01         0.01
  WS02006231WS02006230        0.01      0.01      0.01      6.43         0.01
  WS02006230WS02006229        1.12      1.18      1.12      6.52         1.12
  WS02006228WS02006109        0.92      1.03      0.92      1.87         0.92
  WS02006112WS02006115        0.01      0.01      0.52      0.01         0.01
  WS02006111WS02006112        0.01      0.01      1.61      0.01         0.01
  WS02006110WS02006113        0.01      0.01      0.98      0.01         0.01
  WS02006109WS02006110        0.30      0.30      1.03      0.31         0.01
  WS02004405WS02004406        0.01      0.01      0.01      0.44         0.01
  WS02004404WS02004405        0.01      0.01      0.01      6.34         0.01
  WS02003072WS02003073        0.01      0.01      0.01      4.92         0.01
  HS02004480HS02004478        0.01      0.01      0.01      0.41         0.01
  YS02001759YS02001757        6.15      6.15      6.19      0.01         0.01
  YS02001762YS02001759        6.15      6.15      6.15      0.01         0.01
  YS02001765YS02001762        6.13      6.13      6.15      0.01         0.01
  YS02001770YS02001767        6.13      6.13      6.13      0.31         0.68
  YS02001774YS02001770        6.11      6.11      6.14      0.01         0.01
  YS02001779YS02001774        5.96      5.96      6.14      0.01         0.01
  YS02001649YS02001757        6.14      6.14      6.19      0.01         0.01
  YS02001767YS02001765        6.13      6.13      6.13      0.01         0.01
  YS02006561YS02001783        0.59      0.59      1.45      0.01         0.01
  YS02001783YS02001784        1.45      1.45      1.47      1.34         1.17
  YS02001784YS02001785        1.46      1.47      1.46      2.21         1.45
  YS02001788YS02001790        1.45      1.45      2.83      0.01         0.01
  YS02001790YS02001791        2.83      2.83      2.96      0.01         0.03
  YS02001791YS02001793        2.96      2.96      3.22      0.01         0.01
  YS02001910YS02001907        1.19      1.19      1.70      0.01         0.01
  YS02001786YS02001788        1.45      1.46      1.45      1.87         1.44
  YS02001915YS02001910        0.89      0.89      1.19      0.01         0.01
  YS02001918YS02001915        0.01      0.01      0.89      0.01         0.01
  YS02001923YS02001920        0.01      0.01      0.26      0.01         0.01
  YS02001920YS02001918        0.01      0.01      0.26      0.01         0.01
  YS02001629YS02163301        6.10      6.10      6.11      0.01         0.01
  YS02001619YS02001622        5.85      5.85      5.90      0.01         0.01
  YS02001622YS02001625        5.90      5.90      6.09      0.01         0.01
  YS02001625YS02001629        5.87      5.87      6.09      0.01         0.01
  YS02163301YS02001633        6.11      6.11      6.12      0.01         0.01
  YS02163601YS02164001        6.12      6.12      6.15      0.01         0.01
  YS02164001YS02001641        6.12      6.12      6.13      0.01         0.03
  YS02001641YS02001644        6.13      6.13      6.13      1.39         1.38
  YS02001647YS02001649        6.08      6.08      6.14      0.01         0.01
  YS02006553YS02006556        1.42      1.42      1.76      0.01         0.01
  YS02006556YS02006558        1.60      1.60      1.83      0.01         0.01
  YS02001907YS02006553        2.23      2.23      2.42      0.01         0.01
  YS02006558YS02006561        1.04      1.37      1.04      2.10         1.04
  YS02001633YS02163601        6.12      6.12      6.15      0.01         0.01
  YS02001644YS02001647        6.08      6.08      6.13      0.01         0.01
  YS02001745YS02001748        0.01      0.01      5.65      0.01         0.01
  YS02001748YS02001751        5.72      5.72      5.83      0.01         0.01
  YS02001751YS02001754        5.83      5.83      5.97      0.01         0.01
  YS02001754YS02001757        6.07      6.07      6.19      0.01         0.01
  YS02001882YS02001884        0.91      0.91      0.97      0.01         0.01
  YS02001884YS02001887        1.05      1.05      1.09      0.01         0.01
  YS02001890YS02001895        0.86      0.86      1.20      0.01         0.01
  YS02001895YS02001898        0.83      0.83      0.86      0.01         0.01
  YS02001898YS02001901        0.88      0.88      1.04      0.01         0.01
  YS02001901YS02001904        1.01      1.01      1.04      0.01         0.01
  YS02001904YS02001907        1.01      1.01      1.79      0.01         0.01
  YS02001887YS02001890        1.13      1.13      1.16      0.01         0.01
  YS02001652YS02001649        6.09      6.09      6.14      0.01         0.01
  YS02001655YS02001652        5.87      5.87      6.05      0.01         0.01
  YS02001658YS02001655        5.69      5.69      5.87      0.01         0.01
  YS02001661YS02001658        0.24      0.24      5.70      0.01         0.01
  YS02001664YS02001661        0.01      0.01      1.25      0.01         0.01
  YS02001793JiankangQianchi        3.15      3.15      4.10      0.01         0.01
  YS02001757CaochengTiaoxuchi        5.55      5.55      6.19      0.01         0.01
  
  
  ***************
  Pumping Summary
  ***************
  
  ---------------------------------------------------------------------------------------------------------
                                                  Min       Avg       Max     Total     Power    % Time Off
                        Percent   Number of      Flow      Flow      Flow    Volume     Usage    Pump Curve
  Pump                 Utilized   Start-Ups       LPS       LPS       LPS  10^6 ltr     Kw-hr    Low   High
  ---------------------------------------------------------------------------------------------------------
  CC-Pump-1                0.00           0      0.00      0.00      0.00     0.000      0.00    0.0    0.0
  CC-Pump-2                0.00           0      0.00      0.00      0.00     0.000      0.00    0.0    0.0
  JK-Pump-1                8.52           1      0.00    201.52    300.00     0.181      2.83    0.0    0.0
  JK-Pump-2               97.86           1      0.00    263.84    300.00     5.522     46.73    0.0    0.0
  XR-Pump-1                0.00           0      0.00      0.00      0.00     0.000      0.00    0.0    0.0
  XR-Pump-2               93.61           1      0.00     94.78     95.00     2.479     15.35    0.0    0.0
  XR-Pump-3               97.86           1      0.00     94.72     95.00     2.593     16.24    0.0    0.0
  XR-Pump-4               97.86           1      0.00     94.72     95.00     2.593     16.24    0.0    0.0
  

  Analysis begun on:  Tue Dec 14 13:44:57 2021
  Analysis ended on:  Tue Dec 14 13:45:01 2021
  Total elapsed time: 00:00:04