
  EPA STORM WATER MANAGEMENT MODEL - VERSION 5.1 (Build 5.3.0.dev0)
  --------------------------------------------------------------

  WARNING 04: minimum elevation drop used for Conduit WS02004404WS02004405
  WARNING 03: negative offset ignored for Link YS02001904YS02001907
  
  *********************************************************
  NOTE: The summary statistics displayed in this report are
  based on results found at every computational time step,  
  not just on results from each reporting time step.
  *********************************************************
  
  ****************
  Analysis Options
  ****************
  Flow Units ............... LPS
  Process Models:
    Rainfall/Runoff ........ YES
    RDII ................... NO
    Snowmelt ............... NO
    Groundwater ............ NO
    Flow Routing ........... YES
    Ponding Allowed ........ NO
    Water Quality .......... NO
  Infiltration Method ...... HORTON
  Flow Routing Method ...... DYNWAVE
  Surcharge Method ......... EXTRAN
  Starting Date ............ 08/28/2015 08:00:00
  Ending Date .............. 08/28/2015 10:20:00
  Antecedent Dry Days ...... 8.0
  Report Time Step ......... 00:01:00
  Wet Time Step ............ 00:01:00
  Dry Time Step ............ 00:01:00
  Routing Time Step ........ 5.00 sec
  Variable Time Step ....... YES
  Maximum Trials ........... 8
  Number of Threads ........ 4
  Head Tolerance ........... 0.001500 m
  
  
  **************************        Volume         Depth
  Runoff Quantity Continuity     hectare-m            mm
  **************************     ---------       -------
  Total Precipitation ......         4.127         9.036
  Evaporation Loss .........         0.000         0.000
  Infiltration Loss ........         0.597         1.307
  Surface Runoff ...........         0.398         0.872
  Final Storage ............         3.141         6.877
  Continuity Error (%) .....        -0.231
  
  
  **************************        Volume        Volume
  Flow Routing Continuity        hectare-m      10^6 ltr
  **************************     ---------     ---------
  Dry Weather Inflow .......         0.158         1.577
  Wet Weather Inflow .......         0.370         3.701
  Groundwater Inflow .......         0.000         0.000
  RDII Inflow ..............         0.000         0.000
  External Inflow ..........         0.026         0.262
  External Outflow .........         0.176         1.756
  Flooding Loss ............         0.009         0.088
  Evaporation Loss .........         0.000         0.000
  Exfiltration Loss ........         0.000         0.000
  Initial Stored Volume ....         0.076         0.761
  Final Stored Volume ......         0.445         4.449
  Continuity Error (%) .....         0.125
  
  
  *************************
  Highest Continuity Errors
  *************************
  Node YS02001884 (68.13%)
  Node YS02001774 (56.73%)
  Node HS02004842 (52.41%)
  Node YS02001625 (29.06%)
  Node WS02006239 (24.50%)
  
  
  ***************************
  Time-Step Critical Elements
  ***************************
  Link 3 (46.68%)
  Link WS02006280WS02006229 (19.00%)
  Link YS02006556YS02006558 (1.07%)
  
  
  ********************************
  Highest Flow Instability Indexes
  ********************************
  Link WS02006113WS02006111 (20)
  Link YS02006558YS02006561 (18)
  Link WS02006111WS02006112 (9)
  Link YS02006556YS02006558 (8)
  Link YS02001790YS02001791 (8)
  
  
  *************************
  Routing Time Step Summary
  *************************
  Minimum Time Step           :     0.50 sec
  Average Time Step           :     2.34 sec
  Maximum Time Step           :     5.00 sec
  Percent in Steady State     :     0.00
  Average Iterations per Step :     3.19
  Percent Not Converging      :    15.92
  
  
  ***************************
  Subcatchment Runoff Summary
  ***************************
  
  ------------------------------------------------------------------------------------------------------------------------------
                            Total      Total      Total      Total     Imperv       Perv      Total       Total     Peak  Runoff
                           Precip      Runon       Evap      Infil     Runoff     Runoff     Runoff      Runoff   Runoff   Coeff
  Subcatchment                 mm         mm         mm         mm         mm         mm         mm    10^6 ltr      LPS
  ------------------------------------------------------------------------------------------------------------------------------
  sub0                       9.04       0.00       0.00       0.40       5.67       0.00       5.67        0.00     2.87   0.628
  sub1                       9.04       0.00       0.00       0.63       4.06       0.00       4.06        0.03    19.76   0.450
  sub2                       9.04       0.00       0.00       2.11       2.59       0.00       2.59        0.02    18.51   0.287
  sub3                       9.04       0.00       0.00       2.11       2.20       0.00       2.20        0.05    40.44   0.244
  sub4                       9.04       0.00       0.00       0.63       2.63       0.00       2.63        0.05    47.06   0.291
  sub5                       9.04       0.00       0.00       0.40       4.24       0.00       4.24        0.05    35.17   0.469
  sub7                       9.04       0.00       0.00       0.51       4.84       0.00       4.84        0.02    11.01   0.535
  sub8                       9.04       0.00       0.00       0.51       4.58       0.00       4.58        0.03    20.38   0.507
  sub9                       9.04       0.00       0.00       0.51       4.53       0.00       4.53        0.02    15.25   0.501
  sub10                      9.04       0.00       0.00       0.46       4.33       0.00       4.33        0.05    34.41   0.479
  sub11                      9.04       0.00       0.00       0.46       4.72       0.00       4.72        0.05    37.78   0.522
  sub12                      9.04       0.00       0.00       0.74       5.03       0.00       5.03        0.04    28.31   0.557
  sub14                      9.04       0.00       0.00       0.51       4.48       0.00       4.48        0.04    30.05   0.496
  sub15                      9.04       0.00       0.00       1.71       3.38       0.00       3.38        0.06    41.37   0.374
  sub16                      9.04       0.00       0.00       1.88       3.76       0.00       3.76        0.04    25.78   0.416
  sub17                      9.04       0.00       0.00       1.83       3.74       0.00       3.74        0.03    21.26   0.414
  sub22                      9.04       0.00       0.00       2.45       2.96       0.00       2.96        0.19   127.91   0.327
  sub23                      9.04       0.00       0.00       2.11       3.32       0.00       3.32        0.16   107.47   0.367
  sub60                      9.04       0.00       0.00       0.68       0.70       0.00       0.70        0.21   218.08   0.078
  sub61                      9.04       0.00       0.00       0.97       0.94       0.00       0.94        0.29   289.64   0.104
  sub62                      9.04       0.00       0.00       0.46       0.94       0.00       0.94        0.29   291.45   0.104
  sub63                      9.04       0.00       0.00       1.65       0.92       0.00       0.92        0.28   275.52   0.102
  sub64                      9.04       0.00       0.00       0.86       0.66       0.00       0.66        0.20   206.22   0.073
  sub65                      9.04       0.00       0.00       0.74       0.66       0.00       0.66        0.20   208.32   0.073
  sub66                      9.04       0.00       0.00       1.65       0.62       0.00       0.62        0.19   192.63   0.068
  sub67                      9.04       0.00       0.00       0.46       1.30       0.00       1.30        0.40   391.11   0.143
  sub68                      9.04       0.00       0.00       0.80       1.06       0.00       1.06        0.33   324.25   0.118
  sub69                      9.04       0.00       0.00       0.86       1.51       0.00       1.51        0.35   334.42   0.167
  sub70                      9.04       1.45       0.00       1.95       0.86       0.00       0.86        0.20   214.10   0.082
  sub71                      9.04       0.00       0.00       0.46       0.83       0.00       0.83        0.20   199.32   0.092
  sub72                      9.04       0.00       0.00       0.40       0.40       0.00       0.40        0.08    84.80   0.044
  sub73                      9.04       0.78       0.00       1.94       0.74       0.00       0.74        0.17   185.63   0.076
  sub74                      9.04       0.00       0.00       4.28       0.50       0.00       0.50        0.20   187.76   0.056
  
  
  ******************
  Node Depth Summary
  ******************
  
  ---------------------------------------------------------------------------------
                                 Average  Maximum  Maximum  Time of Max    Reported
                                   Depth    Depth      HGL   Occurrence   Max Depth
  Node                 Type       Meters   Meters   Meters  days hr:min      Meters
  ---------------------------------------------------------------------------------
  WS02001211           JUNCTION     0.64     0.71     5.55     0  02:00        0.71
  WS02001212           JUNCTION     0.36     0.43     5.50     0  02:00        0.43
  WS02001213           JUNCTION     0.54     0.69     5.45     0  02:00        0.69
  WS02003069           JUNCTION     0.32     0.53     5.12     0  02:00        0.53
  WS02003072           JUNCTION     0.38     0.59     4.96     0  02:00        0.58
  WS02003073           JUNCTION     0.21     0.35     4.42     0  02:00        0.35
  WS02003060           JUNCTION     0.29     0.47     5.41     0  02:00        0.47
  WS02003066           JUNCTION     0.09     0.30     5.86     0  02:00        0.30
  WS02003059           JUNCTION     0.60     0.75     5.44     0  02:00        0.75
  WS02003067           JUNCTION     0.24     0.71     6.03     0  02:00        0.71
  WS02004401           JUNCTION     0.44     0.91     6.91     0  02:00        0.91
  WS02004402           JUNCTION     0.45     0.94     6.90     0  02:00        0.93
  WS02004403           JUNCTION     0.46     0.95     6.88     0  02:00        0.94
  WS02004404           JUNCTION     0.52     1.02     6.87     0  02:00        1.01
  WS02004406           JUNCTION     0.53     0.99     6.82     0  02:00        0.99
  WS02004409           JUNCTION     0.26     0.69     6.46     0  02:00        0.69
  WS02004410           JUNCTION     0.26     0.70     6.42     0  02:00        0.70
  WS02004411           JUNCTION     0.26     0.71     6.39     0  02:00        0.70
  WS02004412           JUNCTION     0.25     0.71     6.35     0  02:00        0.71
  WS02004413           JUNCTION     0.33     0.87     6.34     0  02:00        0.86
  WS02004405           JUNCTION     0.52     1.00     6.85     0  02:00        1.00
  WS02006109           JUNCTION     0.65     1.07     7.69     0  02:00        1.06
  WS02006110           JUNCTION     0.64     0.99     7.57     0  02:00        0.98
  WS02006111           JUNCTION     0.17     0.31     7.02     0  02:00        0.31
  WS02006112           JUNCTION     0.62     1.19     7.07     0  01:59        1.10
  WS02006113           JUNCTION     0.26     0.49     7.38     0  02:00        0.49
  WS02006115           JUNCTION     0.38     0.82     6.96     0  02:00        0.82
  WS02006116           JUNCTION     0.43     0.90     6.94     0  02:00        0.90
  WS02006230           JUNCTION     0.59     1.11     7.85     0  02:00        1.10
  WS02006231           JUNCTION     0.28     0.74     7.86     0  02:00        0.72
  WS02006232           JUNCTION     0.33     0.82     7.86     0  02:00        0.81
  WS02006234           JUNCTION     0.27     0.71     7.87     0  02:00        0.70
  WS02006235           JUNCTION     0.28     0.71     7.87     0  02:00        0.71
  WS02006238           JUNCTION     0.29     0.74     7.88     0  02:00        0.72
  WS02006240           JUNCTION     0.22     0.58     7.87     0  02:00        0.57
  WS02006242           JUNCTION     0.25     0.60     7.87     0  02:00        0.60
  WS02006243           JUNCTION     0.17     0.46     7.88     0  02:00        0.45
  WS02006245           JUNCTION     0.16     0.39     7.88     0  02:00        0.39
  WS02006247           JUNCTION     0.17     0.39     7.89     0  02:00        0.38
  WS02006248           JUNCTION     0.13     0.31     7.89     0  02:00        0.30
  WS02006249           JUNCTION     0.16     0.31     7.91     0  02:00        0.31
  WS02006239           JUNCTION     0.26     0.67     7.87     0  02:00        0.66
  WS02006251           JUNCTION     0.15     0.28     7.95     0  02:00        0.27
  WS02006252           JUNCTION     0.00     0.00     8.24     0  00:00        0.00
  WS02006253           JUNCTION     0.20     0.34     7.98     0  02:00        0.34
  WS02006256           JUNCTION     0.60     1.61     8.55     0  01:55        1.26
  WS02004138           JUNCTION     0.15     0.17     7.42     0  01:37        0.17
  WS02004407           JUNCTION     0.13     0.31     6.63     0  02:00        0.31
  WS02006228           JUNCTION     0.65     1.14     7.79     0  02:00        1.13
  WS02006229           JUNCTION     0.63     1.14     7.83     0  02:00        1.14
  WS02006280           JUNCTION     0.12     0.22     8.49     0  02:00        0.22
  WS02006284           JUNCTION     0.42     0.59     8.98     0  02:00        0.58
  WS02006287           JUNCTION     0.18     0.32     9.28     0  02:00        0.32
  WSF200               JUNCTION     0.09     0.32     5.55     0  02:00        0.31
  HS02004901           JUNCTION     0.19     0.32    10.14     0  02:00        0.32
  HS02004881           JUNCTION     0.02     0.04     9.07     0  02:00        0.04
  HS02004876           JUNCTION     0.08     0.14     9.17     0  02:00        0.14
  HS02004870           JUNCTION     0.04     0.08     9.36     0  02:00        0.08
  HS02004862           JUNCTION     0.05     0.09     9.47     0  02:00        0.09
  HS02004856           JUNCTION     0.08     0.13     9.56     0  02:00        0.13
  HS02004852           JUNCTION     0.03     0.06     9.57     0  02:00        0.06
  HS02004848           JUNCTION     0.03     0.05     9.66     0  02:00        0.05
  HS02004842           JUNCTION     0.32     0.39     9.66     0  02:00        0.39
  HS02004837           JUNCTION     0.05     0.08     9.66     0  02:00        0.08
  HS02004830           JUNCTION     0.06     0.09     9.56     0  02:00        0.09
  HS02004824           JUNCTION     0.04     0.07     9.47     0  02:00        0.07
  HS02004817           JUNCTION     0.45     0.63     9.48     0  02:00        0.63
  HS02004807           JUNCTION     0.17     0.30     9.47     0  02:00        0.30
  HS02004802           JUNCTION     0.20     0.34     9.47     0  02:00        0.34
  HS02004799           JUNCTION     0.23     0.39     9.60     0  02:00        0.39
  HS02004792           JUNCTION     0.09     0.17     9.69     0  02:00        0.17
  HS02004788           JUNCTION     0.07     0.12    10.02     0  02:00        0.12
  HS02004785           JUNCTION     0.11     0.20    10.10     0  02:00        0.20
  HS02004777           JUNCTION     0.20     0.33    10.13     0  02:00        0.33
  HS02004770           JUNCTION     0.18     0.31    10.14     0  02:00        0.31
  HS02004480           JUNCTION     0.18     0.31     9.55     0  02:00        0.31
  HS02004479           JUNCTION     0.20     0.35     9.55     0  02:00        0.35
  HS02004478           JUNCTION     0.12     0.22     9.45     0  02:00        0.22
  YS02001745           JUNCTION     0.11     0.37     7.89     0  02:00        0.36
  YS02001748           JUNCTION     0.26     0.82     7.90     0  02:00        0.81
  YS02001751           JUNCTION     0.36     1.43     8.31     0  01:59        0.97
  YS02001754           JUNCTION     0.52     1.50     8.11     0  01:59        1.25
  YS02001762           JUNCTION     0.67     1.62     8.02     0  02:00        1.48
  YS02001765           JUNCTION     0.63     1.59     8.04     0  02:00        1.43
  YS02001767           JUNCTION     0.61     1.58     8.07     0  01:59        1.39
  YS02001770           JUNCTION     0.61     1.63     8.12     0  01:59        1.39
  YS02001774           JUNCTION     0.66     1.71     8.14     0  01:59        1.46
  YS02001779           JUNCTION     0.48     1.46     8.15     0  01:59        1.19
  YS02001882           JUNCTION     0.35     0.76     7.48     0  02:00        0.75
  YS02001884           JUNCTION     0.42     0.86     7.47     0  02:00        0.85
  YS02001759           JUNCTION     0.69     1.63     8.00     0  02:00        1.52
  YS02001887           JUNCTION     0.49     0.94     7.47     0  02:00        0.93
  YS02001890           JUNCTION     0.52     0.96     7.47     0  02:00        0.95
  YS02001898           JUNCTION     0.31     0.71     7.45     0  02:00        0.71
  YS02001901           JUNCTION     0.40     0.84     7.45     0  02:00        0.83
  YS02001904           JUNCTION     0.38     0.81     7.44     0  02:00        0.81
  YS02001907           JUNCTION     0.66     1.15     7.44     0  02:00        1.15
  YS02001910           JUNCTION     0.47     0.94     7.44     0  02:00        0.93
  YS02001915           JUNCTION     0.33     0.73     7.44     0  02:00        0.72
  YS02001918           JUNCTION     0.13     0.37     7.44     0  02:00        0.37
  YS02001619           JUNCTION     0.38     1.41     8.34     0  01:59        1.16
  YS02001629           JUNCTION     0.58     1.54     8.09     0  02:00        1.47
  YS02001641           JUNCTION     0.66     1.62     8.06     0  02:00        1.53
  YS02001644           JUNCTION     0.66     1.62     8.05     0  01:59        1.52
  YS02001652           JUNCTION     0.54     1.68     8.27     0  01:59        1.32
  YS02001655           JUNCTION     0.39     1.63     8.48     0  01:59        1.08
  YS02001920           JUNCTION     0.21     0.44     7.45     0  02:00        0.43
  YS02001923           JUNCTION     0.06     0.17     7.43     0  02:00        0.16
  YS02001926           JUNCTION     0.14     0.25     7.69     0  02:00        0.24
  YS02001929           JUNCTION     0.07     0.13     7.83     0  02:00        0.13
  YS02001658           JUNCTION     0.24     0.83     7.97     0  02:00        0.79
  YS02001661           JUNCTION     0.18     0.53     7.93     0  02:00        0.52
  YS02001664           JUNCTION     0.10     0.19     8.12     0  02:00        0.19
  YS02001622           JUNCTION     0.38     1.37     8.27     0  01:59        1.18
  YS02001633           JUNCTION     0.66     1.62     8.07     0  02:00        1.55
  YS02001649           JUNCTION     0.67     1.68     8.07     0  01:59        1.51
  YS02001757           JUNCTION     0.77     1.73     7.99     0  01:59        1.61
  YS02001895           JUNCTION     0.32     0.71     7.46     0  02:00        0.70
  YS02001625           JUNCTION     0.58     1.54     8.14     0  01:59        1.44
  YS02163301           JUNCTION     0.60     1.56     8.08     0  02:00        1.49
  YS02163601           JUNCTION     0.70     1.66     8.06     0  02:00        1.59
  YS02164001           JUNCTION     0.64     1.60     8.06     0  02:00        1.51
  YS02001647           JUNCTION     0.53     1.46     8.07     0  01:59        1.32
  YSB1154              JUNCTION     0.31     0.50     9.56     0  02:00        0.50
  YSB6556              JUNCTION     0.23     0.39     9.56     0  02:00        0.39
  YSB1174              JUNCTION     0.28     0.45     9.56     0  02:00        0.45
  YSB1171              JUNCTION     0.46     0.65     9.56     0  02:00        0.65
  YS02006553           JUNCTION     0.66     1.15     7.43     0  02:00        1.14
  YS02006561           JUNCTION     0.17     0.39     7.05     0  02:00        0.39
  YS02006556           JUNCTION     0.63     1.11     7.42     0  02:00        1.10
  YS02006558           JUNCTION     0.67     1.15     7.42     0  02:00        1.14
  YS02001783           JUNCTION     0.31     0.70     6.85     0  02:00        0.70
  YS02001784           JUNCTION     0.32     0.70     6.77     0  02:00        0.70
  YS02001786           JUNCTION     0.27     0.58     6.61     0  02:00        0.57
  YS02001788           JUNCTION     0.20     0.46     6.44     0  02:00        0.46
  YS02001790           JUNCTION     0.24     0.57     6.21     0  02:00        0.56
  YS02001791           JUNCTION     0.16     0.65     6.12     0  02:00        0.61
  YS02001793           JUNCTION     0.39     2.87     7.71     0  01:50        1.25
  WS02004139           JUNCTION     0.58     0.65     5.56     0  02:00        0.65
  WSC                  OUTFALL      0.21     0.35     1.02     0  02:00        0.35
  3                    OUTFALL      0.08     0.23     6.23     0  01:55        0.20
  4                    OUTFALL      0.00     0.00     7.00     0  00:00        0.00
  5                    OUTFALL      0.00     0.00     5.00     0  00:00        0.00
  JK-storage           STORAGE      3.97     5.29     6.09     0  02:00        5.27
  CC-storage           STORAGE      0.06     0.28     7.28     0  02:00        0.27
  XR-storage           STORAGE      7.01     7.72     5.72     0  01:53        7.72
  
  
  *******************
  Node Inflow Summary
  *******************
  
  -------------------------------------------------------------------------------------------------
                                  Maximum  Maximum                  Lateral       Total        Flow
                                  Lateral    Total  Time of Max      Inflow      Inflow     Balance
                                   Inflow   Inflow   Occurrence      Volume      Volume       Error
  Node                 Type           LPS      LPS  days hr:min    10^6 ltr    10^6 ltr     Percent
  -------------------------------------------------------------------------------------------------
  WS02001211           JUNCTION      7.35   293.86     0  01:35       0.053        1.39       2.907
  WS02001212           JUNCTION      0.00   292.69     0  01:53           0        1.35       1.576
  WS02001213           JUNCTION      0.00   292.74     0  01:53           0        1.33       1.973
  WS02003069           JUNCTION      0.32   808.54     0  02:00     0.00231        1.57       2.459
  WS02003072           JUNCTION      0.00   793.05     0  02:00           0        1.53       2.904
  WS02003073           JUNCTION      1.82   777.89     0  02:00      0.0131         1.5       3.387
  WS02003060           JUNCTION     16.53   823.35     0  02:00       0.119        1.61       2.276
  WS02003066           JUNCTION      0.00   550.30     0  02:00           0       0.236       2.686
  WS02003059           JUNCTION      0.00   292.88     0  01:50           0        1.31       3.472
  WS02003067           JUNCTION      0.00   553.56     0  02:00           0       0.248       4.970
  WS02004401           JUNCTION      0.00   618.34     0  02:00           0        0.56       5.457
  WS02004402           JUNCTION      0.00   616.08     0  02:00           0       0.531       5.202
  WS02004403           JUNCTION      0.00   612.55     0  02:00           0       0.504       4.774
  WS02004404           JUNCTION      0.16   608.15     0  02:00     0.00117       0.483       3.465
  WS02004406           JUNCTION      0.00   607.51     0  02:00           0       0.442       9.752
  WS02004409           JUNCTION      0.00   598.29     0  02:00           0       0.392       6.787
  WS02004410           JUNCTION      0.00   589.19     0  02:00           0       0.367       7.891
  WS02004411           JUNCTION      0.00   579.96     0  02:00           0        0.34       8.435
  WS02004412           JUNCTION      0.00   571.96     0  02:00           0       0.314       9.480
  WS02004413           JUNCTION      0.00   562.90     0  02:00           0       0.286      15.380
  WS02004405           JUNCTION      0.04   607.50     0  02:00    0.000275       0.467       5.507
  WS02006109           JUNCTION      1.23   623.37     0  02:00     0.00887        0.69       3.421
  WS02006110           JUNCTION      0.00   623.27     0  02:00           0       0.667       3.872
  WS02006111           JUNCTION      0.00   647.29     0  02:00           0       0.627       1.185
  WS02006112           JUNCTION     20.82   639.42     0  02:00      0.0305       0.651       5.112
  WS02006113           JUNCTION      0.00   625.05     0  02:00           0       0.642       2.392
  WS02006115           JUNCTION      0.00   641.93     0  02:00           0       0.619       5.605
  WS02006116           JUNCTION      0.00   627.23     0  02:00           0       0.586       4.750
  WS02006230           JUNCTION     10.28   146.31     0  01:59      0.0742       0.179      11.676
  WS02006231           JUNCTION      0.00   142.81     0  01:55           0       0.117      14.157
  WS02006232           JUNCTION      0.00   143.15     0  01:55           0       0.125      13.888
  WS02006234           JUNCTION      0.00   158.27     0  01:46           0       0.134      10.952
  WS02006235           JUNCTION      0.00   203.79     0  01:45           0       0.149       6.655
  WS02006238           JUNCTION      0.00   135.62     0  01:45           0      0.0441      24.995
  WS02006240           JUNCTION      0.00    65.49     0  01:46           0      0.0677      28.362
  WS02006242           JUNCTION      0.00    69.72     0  01:55           0      0.0837      24.097
  WS02006243           JUNCTION      0.00    77.88     0  01:56           0      0.0945      12.888
  WS02006245           JUNCTION      0.00    85.76     0  02:00           0       0.102       7.654
  WS02006247           JUNCTION      0.00    88.70     0  01:59           0       0.108       6.049
  WS02006248           JUNCTION      0.00    95.04     0  01:59           0       0.112       3.458
  WS02006249           JUNCTION      0.00   101.35     0  02:00           0       0.119       6.361
  WS02006239           JUNCTION      0.00    81.76     0  01:45           0      0.0539      32.448
  WS02006251           JUNCTION      0.08   105.68     0  02:00    0.000556       0.124       4.718
  WS02006252           JUNCTION      0.00     0.00     0  00:00           0           0       0.000 ltr
  WS02006253           JUNCTION      2.81   106.81     0  02:00     0.00437       0.126       2.025
  WS02006256           JUNCTION      0.00   600.00     0  01:50           0        0.42       0.690
  WS02004138           JUNCTION      0.00   285.00     0  01:34           0        1.38       0.287
  WS02004407           JUNCTION      0.00   601.25     0  02:00           0       0.403       2.888
  WS02006228           JUNCTION      0.00   622.13     0  02:00           0       0.698       2.468
  WS02006229           JUNCTION      0.00   628.89     0  02:00           0       0.721       2.410
  WS02006280           JUNCTION      0.00   482.10     0  02:00           0        0.57       0.225
  WS02006284           JUNCTION      0.10   485.58     0  02:00     0.00069        0.58       1.840
  WS02006287           JUNCTION      0.00   487.49     0  02:00           0       0.587       1.189
  WSF200               JUNCTION      0.00   547.33     0  02:00           0        0.23       3.173
  HS02004901           JUNCTION     25.24    25.24     0  02:00      0.0374      0.0376      20.397
  HS02004881           JUNCTION     10.79   104.59     0  02:00      0.0155       0.124       1.537
  HS02004876           JUNCTION     19.33    95.22     0  02:00      0.0255       0.114       5.050
  HS02004870           JUNCTION     19.95    76.88     0  02:00      0.0277      0.0913       3.403
  HS02004862           JUNCTION     18.29    58.07     0  02:00      0.0242      0.0671       5.430
  HS02004856           JUNCTION     14.93    40.67     0  02:00      0.0206      0.0469       9.200
  HS02004852           JUNCTION      0.00    26.77     0  02:00           0      0.0285       8.678
  HS02004848           JUNCTION     39.43    39.43     0  02:00      0.0465      0.0465       4.887
  HS02004842           JUNCTION      0.00    11.86     0  02:00           0      0.0289     110.134
  HS02004837           JUNCTION     40.02    51.08     0  02:00      0.0909       0.105       2.835
  HS02004830           JUNCTION      0.15    50.45     0  02:00     0.00108      0.0898       4.162
  HS02004824           JUNCTION     45.84    95.43     0  02:00      0.0516       0.138       1.996
  HS02004817           JUNCTION      0.60    95.03     0  02:00     0.00433       0.139      21.966
  HS02004807           JUNCTION     36.99   128.97     0  02:00      0.0519       0.166       8.176
  HS02004802           JUNCTION      0.00   125.90     0  02:00           0       0.155       7.390
  HS02004799           JUNCTION     29.41   315.11     0  02:00      0.0404       0.417       3.199
  HS02004792           JUNCTION    125.53   288.22     0  02:00       0.179       0.385       2.220
  HS02004788           JUNCTION     42.16   164.43     0  02:00       0.067       0.213       2.901
  HS02004785           JUNCTION      0.15   124.43     0  02:00     0.00108       0.156       6.465
  HS02004777           JUNCTION      0.03   126.93     0  02:00    0.000216        0.17       9.980
  HS02004770           JUNCTION    105.24   129.27     0  02:00        0.15       0.181       7.114
  HS02004480           JUNCTION      0.00   368.50     0  02:00           0       0.469       2.329
  HS02004479           JUNCTION      0.00    57.34     0  02:00           0      0.0775       6.004
  HS02004478           JUNCTION      0.00   489.00     0  02:00           0       0.592       0.781
  YS02001745           JUNCTION    210.04   210.04     0  02:00       0.196       0.196       2.776
  YS02001748           JUNCTION      0.04   218.13     0  01:56    0.000325       0.191      10.432
  YS02001751           JUNCTION      0.01   260.29     0  01:59    7.94e-05       0.173      15.758
  YS02001754           JUNCTION      0.26   178.80     0  01:56     0.00188       0.152      19.211
  YS02001762           JUNCTION      0.00   285.68     0  02:00           0       0.185      12.813
  YS02001765           JUNCTION      0.00   285.05     0  02:00           0       0.186      14.929
  YS02001767           JUNCTION      0.54   284.50     0  02:00     0.00386       0.206      20.876
  YS02001770           JUNCTION    281.17   282.68     0  02:00       0.268        0.27      13.098
  YS02001774           JUNCTION      0.00    58.04     0  01:49           0      0.0438     131.122
  YS02001779           JUNCTION      0.01    57.82     0  01:52    3.61e-05      0.0173     818.305
  YS02001882           JUNCTION      0.00    13.46     0  01:58           0     0.00955    9544.379 ltr
  YS02001884           JUNCTION      0.00    23.08     0  01:58           0        0.03     213.738
  YS02001759           JUNCTION    279.46   565.81     0  02:00       0.268       0.417       5.746
  YS02001887           JUNCTION    378.28   378.28     0  02:00       0.373       0.373       6.368
  YS02001890           JUNCTION      0.00   351.31     0  02:00           0       0.321       7.698
  YS02001898           JUNCTION      0.00   323.69     0  01:59           0       0.278       6.753
  YS02001901           JUNCTION      0.00   310.07     0  01:59           0       0.262       8.574
  YS02001904           JUNCTION      0.00   294.77     0  01:58           0       0.245       8.061
  YS02001907           JUNCTION      0.00   501.11     0  01:56           0       0.425       9.590
  YS02001910           JUNCTION      0.00   221.76     0  01:56           0       0.218      13.513
  YS02001915           JUNCTION    192.08   229.54     0  01:57       0.181       0.245      12.449
  YS02001918           JUNCTION      0.00    69.47     0  01:56           0      0.0772      20.814
  YS02001619           JUNCTION    185.59   185.59     0  02:00       0.174       0.174       7.531
  YS02001629           JUNCTION      0.00   197.73     0  02:00           0       0.108      35.867
  YS02001641           JUNCTION      0.00   389.36     0  02:00           0       0.183      12.854
  YS02001644           JUNCTION    198.63   587.34     0  02:00       0.186       0.339       8.275
  YS02001652           JUNCTION      0.00   237.72     0  01:57           0       0.201      13.065
  YS02001655           JUNCTION      0.15   316.36     0  01:58     0.00111       0.226      12.252
  YS02001920           JUNCTION      2.87    74.58     0  01:58      0.0207      0.0866      12.238
  YS02001923           JUNCTION      0.04    77.67     0  02:00    0.000272      0.0674       2.325
  YS02001926           JUNCTION      0.05    80.88     0  02:00    0.000377      0.0734       9.335
  YS02001929           JUNCTION     81.51    81.51     0  02:00      0.0742      0.0742       1.504
  YS02001658           JUNCTION      0.00   268.15     0  02:00           0       0.246       9.112
  YS02001661           JUNCTION      0.00   265.04     0  02:00           0       0.257       4.554
  YS02001664           JUNCTION    266.02   266.02     0  02:00       0.258       0.258       0.653
  YS02001622           JUNCTION      0.00   194.40     0  01:59           0       0.163      24.321
  YS02001633           JUNCTION    200.79   389.93     0  02:00       0.188       0.252      14.474
  YS02001649           JUNCTION      0.00   791.92     0  02:00           0       0.443       9.001
  YS02001757           JUNCTION      0.00  1497.37     0  02:00           0       0.893      11.463
  YS02001895           JUNCTION      0.00   337.91     0  02:00           0       0.298       7.061
  YS02001625           JUNCTION      0.00   197.44     0  02:00           0       0.134      40.971
  YS02163301           JUNCTION      0.00   194.22     0  01:59           0       0.101      30.714
  YS02163601           JUNCTION      0.11   389.70     0  02:00    0.000794       0.199      17.600
  YS02164001           JUNCTION      0.00   389.78     0  02:00           0        0.18      12.324
  YS02001647           JUNCTION      0.00   587.08     0  02:00           0       0.295      10.572
  YSB1154              JUNCTION     34.40    34.40     0  02:00      0.0454      0.0462      10.512
  YSB6556              JUNCTION      0.00    33.61     0  02:00           0       0.044      16.916
  YSB1174              JUNCTION     27.72    27.72     0  02:00      0.0418      0.0424      11.175
  YSB1171              JUNCTION      0.00    58.97     0  02:00           0      0.0837      19.230
  YS02006553           JUNCTION      0.00   494.37     0  01:57           0       0.402       6.123
  YS02006561           JUNCTION      0.00   781.26     0  02:00           0       0.635       0.781
  YS02006556           JUNCTION      0.00   493.26     0  01:57           0       0.398       4.621
  YS02006558           JUNCTION    313.85   781.01     0  02:00       0.309       0.672       1.414
  YS02001783           JUNCTION      0.00   780.14     0  02:00           0        0.63       1.849
  YS02001784           JUNCTION      1.06   774.33     0  02:00     0.00765       0.627       2.294
  YS02001786           JUNCTION      0.06   768.43     0  02:00    0.000406       0.613       2.289
  YS02001788           JUNCTION      0.07   761.12     0  01:58    0.000512         0.6       1.701
  YS02001790           JUNCTION      0.15   761.00     0  01:58     0.00112       0.591       2.205
  YS02001791           JUNCTION      0.00   781.84     0  01:58           0       0.578       2.181
  YS02001793           JUNCTION      0.00   808.47     0  01:49           0       0.577       2.590
  WS02004139           JUNCTION      0.32   285.32     0  01:37     0.00232        1.37       2.764
  WSC                  OUTFALL       0.00   751.60     0  02:00           0        1.45       0.000
  3                    OUTFALL       0.00   573.03     0  01:55           0       0.303       0.000
  4                    OUTFALL       0.00     0.00     0  00:00           0           0       0.000 ltr
  5                    OUTFALL       0.00     0.00     0  00:00           0           0       0.000 ltr
  JK-storage           STORAGE       0.00  1061.25     0  01:49           0       0.713       2.517
  CC-storage           STORAGE       0.00  1497.97     0  02:00           0         0.8       2.037
  XR-storage           STORAGE     560.14   560.14     0  02:00        1.79        2.39       0.001
  
  
  **********************
  Node Surcharge Summary
  **********************
  
  Surcharging occurs when water rises above the top of the highest conduit.
  ---------------------------------------------------------------------
                                               Max. Height   Min. Depth
                                   Hours       Above Crown    Below Rim
  Node                 Type      Surcharged         Meters       Meters
  ---------------------------------------------------------------------
  WS02004404           JUNCTION        0.02          0.016        2.764
  WS02004405           JUNCTION        0.01          0.005        2.795
  WS02006109           JUNCTION        0.22          0.251        1.569
  WS02006110           JUNCTION        0.11          0.079        1.771
  WS02006112           JUNCTION        0.11          0.188        1.492
  WS02006230           JUNCTION        0.01          0.025        1.545
  WS02006231           JUNCTION        0.01          0.030        1.500
  WS02006232           JUNCTION        0.09          0.125        1.355
  WS02006238           JUNCTION        0.01          0.020        1.410
  WS02006256           JUNCTION        0.01          0.312        0.738
  WS02006228           JUNCTION        0.22          0.306        1.894
  YS02001751           JUNCTION        0.01          0.427        0.773
  YS02001754           JUNCTION        0.10          0.451        0.699
  YS02001762           JUNCTION        0.18          0.616        0.534
  YS02001765           JUNCTION        0.16          0.589        0.511
  YS02001767           JUNCTION        0.16          0.578        0.452
  YS02001770           JUNCTION        0.14          0.597        0.323
  YS02001774           JUNCTION        0.17          0.715        0.335
  YS02001779           JUNCTION        0.10          0.461        0.219
  YS02001759           JUNCTION        0.19          0.633        0.577
  YS02001907           JUNCTION        0.11          0.142        0.808
  YS02001619           JUNCTION        0.02          0.412        0.198
  YS02001629           JUNCTION        0.02          0.157        0.313
  YS02001641           JUNCTION        0.16          0.620        0.480
  YS02001644           JUNCTION        0.16          0.621        0.299
  YS02001652           JUNCTION        0.12          0.648        0.482
  YS02001655           JUNCTION        0.02          0.625        0.575
  YS02001622           JUNCTION        0.04          0.370        0.250
  YS02001633           JUNCTION        0.15          0.599        0.461
  YS02001649           JUNCTION        0.18          0.682        0.368
  YS02001757           JUNCTION        0.22          0.729        0.481
  YS02001625           JUNCTION        0.13          0.537        0.243
  YS02163301           JUNCTION        0.15          0.564        0.466
  YS02163601           JUNCTION        0.17          0.664        0.416
  YS02164001           JUNCTION        0.16          0.604        0.496
  YS02001647           JUNCTION        0.12          0.457        0.443
  YS02006553           JUNCTION        0.12          0.150        1.040
  YS02006556           JUNCTION        0.04          0.072        1.278
  YS02006558           JUNCTION        0.03          0.050        1.350
  YS02001793           JUNCTION        0.04          1.873        0.727
  
  
  *********************
  Node Flooding Summary
  *********************
  
  Flooding refers to all water that overflows a node, whether it ponds or not.
  --------------------------------------------------------------------------
                                                             Total   Maximum
                                 Maximum   Time of Max       Flood    Ponded
                        Hours       Rate    Occurrence      Volume     Depth
  Node                 Flooded       LPS   days hr:min    10^6 ltr    Meters
  --------------------------------------------------------------------------
  XR-storage              0.11    275.06      0  02:00       0.088     0.000
  
  
  **********************
  Storage Volume Summary
  **********************
  
  --------------------------------------------------------------------------------------------------
                         Average     Avg  Evap Exfil       Maximum     Max    Time of Max    Maximum
                          Volume    Pcnt  Pcnt  Pcnt        Volume    Pcnt     Occurrence    Outflow
  Storage Unit           1000 m3    Full  Loss  Loss       1000 m3    Full    days hr:min        LPS
  --------------------------------------------------------------------------------------------------
  JK-storage               0.200      69     0     0         0.266      91       0  02:00     701.35
  CC-storage               0.159       1     0     0         0.784       5       0  02:00       0.00
  XR-storage               0.842      91     0     0         0.926     100       0  01:53     285.00
  
  
  ***********************
  Outfall Loading Summary
  ***********************
  
  -----------------------------------------------------------
                         Flow       Avg       Max       Total
                         Freq      Flow      Flow      Volume
  Outfall Node           Pcnt       LPS       LPS    10^6 ltr
  -----------------------------------------------------------
  WSC                   99.97    317.67    751.60       1.453
  3                     48.62    349.37    573.03       0.303
  4                      0.00      0.00      0.00       0.000
  5                      0.00      0.00      0.00       0.000
  -----------------------------------------------------------
  System                37.15    667.04   1249.34       1.756
  
  
  ********************
  Link Flow Summary
  ********************
  
  -----------------------------------------------------------------------------
                                 Maximum  Time of Max   Maximum    Max/    Max/
                                  |Flow|   Occurrence   |Veloc|    Full    Full
  Link                 Type          LPS  days hr:min     m/sec    Flow   Depth
  -----------------------------------------------------------------------------
  WS02003066WSF200     CONDUIT    547.33     0  02:00      2.70    0.09    0.24
  WS02006287WS02006284 CONDUIT    485.48     0  02:00      2.15    0.22    0.33
  WS02006284WS02006280 CONDUIT    482.10     0  02:00      2.37    0.20    0.31
  WS02006280WS02006229 CONDUIT    481.67     0  02:00      3.84    0.10    0.22
  WS02006229WS02006228 CONDUIT    622.13     0  02:00      1.24    2.06    1.00
  WS02006256WS02006235 CONDUIT    147.21     0  01:45      2.08    1.56    1.00
  WS02006253WS02006251 CONDUIT    105.60     0  02:00      0.66    0.32    0.43
  WS02006252WS02006251 CONDUIT      0.00     0  00:00      0.00    0.00    0.00
  WS02006251WS02006249 CONDUIT    101.35     0  02:00      0.70    0.29    0.42
  WS02006249WS02006248 CONDUIT     95.04     0  01:59      0.79    0.52    0.43
  WS02006248WS02006247 CONDUIT     88.70     0  01:59      0.74    0.19    0.49
  WS02006247WS02006245 CONDUIT     85.76     0  02:00      0.68    0.68    0.55
  WS02006245WS02006243 CONDUIT     77.88     0  01:56      0.81    0.23    0.60
  WS02006243WS02006242 CONDUIT     69.72     0  01:55      0.65    0.15    0.74
  WS02006242WS02006240 CONDUIT     62.72     0  01:48      0.53    0.25    0.84
  WS02006240WS02006239 CONDUIT     53.53     0  01:48      0.70    0.17    0.86
  WS02006239WS02006238 CONDUIT     48.18     0  01:45      0.48    0.15    0.98
  WS02006238WS02006235 CONDUIT     90.18     0  01:45      0.50    0.20    1.00
  WS02006235WS02006234 CONDUIT    158.27     0  01:46      0.82    1.67    1.00
  WS02006234WS02006232 CONDUIT    143.15     0  01:55      0.56    0.29    1.00
  WS02006232WS02006231 CONDUIT    142.81     0  01:55      0.50    0.30    1.00
  WS02006231WS02006230 CONDUIT    136.03     0  01:59      0.47    2.06    1.00
  WS02006230WS02006229 CONDUIT    149.01     0  01:59      0.39    3.32    1.00
  WS02006228WS02006109 CONDUIT    622.14     0  02:00      1.24    2.72    1.00
  WS02006116WS02004401 CONDUIT    618.34     0  02:00      0.83    0.85    0.91
  WS02006115WS02006116 CONDUIT    627.23     0  02:00      0.93    0.80    0.83
  WS02006113WS02006111 CONDUIT    647.29     0  02:00      2.58    0.78    0.50
  WS02006112WS02006115 CONDUIT    641.93     0  02:00      0.86    0.38    0.91
  WS02006111WS02006112 CONDUIT    618.73     0  02:00      1.68    0.29    0.69
  WS02006110WS02006113 CONDUIT    625.05     0  02:00      1.44    0.57    0.81
  WS02006109WS02006110 CONDUIT    623.27     0  02:00      1.24    1.20    1.00
  WS02004411WS02004412 CONDUIT    571.96     0  02:00      1.00    0.81    0.71
  WS02004401WS02004402 CONDUIT    616.08     0  02:00      0.81    0.74    0.92
  WS02004413WS02003067 CONDUIT    553.56     0  02:00      1.13    0.24    0.60
  WS02004412WS02004413 CONDUIT    562.90     0  02:00      0.95    0.38    0.79
  WS02004410WS02004411 CONDUIT    579.96     0  02:00      0.98    0.79    0.71
  WS02004409WS02004410 CONDUIT    589.19     0  02:00      1.01    0.76    0.70
  WS02004407WS02004409 CONDUIT    598.29     0  02:00      1.51    0.21    0.50
  WS02004406WS02004407 CONDUIT    601.25     0  02:00      1.11    0.27    0.65
  WS02004405WS02004406 CONDUIT    607.51     0  02:00      0.77    1.20    1.00
  WS02004404WS02004405 CONDUIT    607.46     0  02:00      0.77    5.95    1.00
  WS02004403WS02004404 CONDUIT    607.99     0  02:00      0.78    0.44    0.97
  WS02004402WS02004403 CONDUIT    612.55     0  02:00      0.80    0.88    0.94
  WS02004139WS02001211 CONDUIT    286.51     0  01:35      0.54    0.36    0.52
  WS02004138WS02004139 CONDUIT    285.00     0  01:37      2.39    0.06    0.38
  WS02003067WS02003066 CONDUIT    550.30     0  02:00      1.22    0.18    0.42
  WS02001213WS02003059 CONDUIT    292.88     0  01:50      0.59    0.48    0.71
  WS02001212WS02001213 CONDUIT    292.74     0  01:53      1.19    0.45    0.40
  WS02001211WS02001212 CONDUIT    292.69     0  01:53      0.67    0.22    0.57
  WS02003072WS02003073 CONDUIT    776.07     0  02:00      1.61    1.68    0.44
  WS02003069WS02003072 CONDUIT    793.05     0  02:00      1.54    0.38    0.47
  WS02003060WS02003069 CONDUIT    808.22     0  02:00      1.80    0.32    0.42
  WS02003059WS02003060 CONDUIT    293.45     0  01:49      0.82    0.19    0.61
  HS02004901HS02004770 CONDUIT     24.03     0  02:00      0.08    0.09    0.45
  HS02004876HS02004881 CONDUIT     93.81     0  02:00      1.04    1.00    0.13
  HS02004870HS02004876 CONDUIT     75.89     0  02:00      0.71    0.05    0.15
  HS02004842HS02004848 CONDUIT     11.86     0  02:00      0.05    0.01    0.31
  HS02004837HS02004842 CONDUIT     11.06     0  02:00      0.42    0.01    0.33
  HS02004830HS02004837 CONDUIT     50.30     0  02:00      0.60    0.05    0.12
  HS02004824HS02004830 CONDUIT     49.58     0  02:00      0.62    0.06    0.11
  HS02004817HS02004824 CONDUIT     94.43     0  02:00      0.27    0.04    0.50
  HS02004770HS02004777 CONDUIT    126.90     0  02:00      0.39    0.23    0.46
  HS02004799HS02004480 CONDUIT    312.22     0  02:00      0.90    0.39    0.49
  HS02004792HS02004799 CONDUIT    285.69     0  02:00      1.02    0.17    0.40
  HS02004788HS02004792 CONDUIT    162.68     0  02:00      1.11    0.11    0.21
  HS02004785HS02004788 CONDUIT    122.27     0  02:00      0.75    0.92    0.23
  HS02004777HS02004785 CONDUIT    124.28     0  02:00      0.46    0.15    0.38
  HS02004480HS02004478 CONDUIT    365.60     0  02:00      1.35    1.54    0.39
  HS02004479HS02004480 CONDUIT     56.29     0  02:00      0.27    0.05    0.47
  HS02004862HS02004870 CONDUIT     56.92     0  02:00      0.70    0.06    0.12
  HS02004848HS02004852 CONDUIT     26.77     0  02:00      0.48    0.03    0.08
  HS02004856HS02004862 CONDUIT     39.78     0  02:00      0.52    0.04    0.11
  HS02004852HS02004856 CONDUIT     25.74     0  02:00      0.27    0.03    0.14
  HS02004802HS02004478 CONDUIT    123.40     0  02:00      0.44    0.11    0.40
  HS02004478WS02006287 CONDUIT    487.49     0  02:00      1.86    0.14    0.29
  HS02004817HS02004807 CONDUIT     91.98     0  02:00      0.20    0.05    0.67
  HS02004807HS02004802 CONDUIT    125.90     0  02:00      0.40    0.24    0.45
  YS02001759YS02001757 CONDUIT    566.34     0  02:00      0.72    0.40    1.00
  YS02001762YS02001759 CONDUIT    286.86     0  01:59      0.37    0.33    1.00
  YS02001765YS02001762 CONDUIT    285.68     0  02:00      0.36    0.27    1.00
  YS02001770YS02001767 CONDUIT    283.97     0  02:00      0.37    1.12    1.00
  YS02001774YS02001770 CONDUIT     58.04     0  01:49      0.22    0.04    1.00
  YS02001779YS02001774 CONDUIT     57.82     0  01:52      0.08    0.03    1.00
  YS02001649YS02001757 CONDUIT    792.32     0  02:00      1.01    0.48    1.00
  YS02001767YS02001765 CONDUIT    285.05     0  02:00      0.36    0.36    1.00
  YS02006561YS02001783 CONDUIT    780.14     0  02:00      2.12    0.40    0.69
  YS02001783YS02001784 CONDUIT    773.27     0  02:00      1.65    1.07    0.88
  YS02001784YS02001785 CONDUIT    768.38     0  02:00      1.78    1.79    0.80
  YS02001788YS02001790 CONDUIT    760.85     0  01:58      2.32    0.56    0.64
  YS02001790YS02001791 CONDUIT    781.84     0  01:58      2.77    0.85    0.76
  YS02001791YS02001793 CONDUIT    728.15     0  01:57      3.97    0.31    0.91
  YS02001910YS02001907 CONDUIT    216.42     0  01:56      0.49    0.12    0.97
  YS02001786YS02001788 CONDUIT    761.05     0  01:58      2.23    1.47    0.65
  YS02001915YS02001910 CONDUIT    221.76     0  01:56      0.54    0.11    0.83
  YS02001918YS02001915 CONDUIT     64.70     0  01:57      0.44    0.04    0.55
  YS02001923YS02001920 CONDUIT     71.71     0  01:58      0.50    0.03    0.31
  YS02001926YS02001923 CONDUIT     77.64     0  02:00      0.70    0.11    0.20
  YS02001929YS02001926 CONDUIT     80.83     0  02:00      0.78    0.04    0.19
  YS02001920YS02001918 CONDUIT     69.47     0  01:56      0.48    0.07    0.41
  YS02001629YS02163301 CONDUIT    194.22     0  01:59      0.25    0.24    1.00
  YS02001619YS02001622 CONDUIT    194.40     0  01:59      0.72    0.29    1.00
  YS02001622YS02001625 CONDUIT    197.44     0  02:00      0.30    0.11    1.00
  YS02001625YS02001629 CONDUIT    197.73     0  02:00      0.29    0.09    1.00
  YS02163301YS02001633 CONDUIT    194.13     0  01:59      0.25    0.18    1.00
  YS02163601YS02164001 CONDUIT    389.78     0  02:00      0.50    0.35    1.00
  YS02164001YS02001641 CONDUIT    389.36     0  02:00      0.50    0.53    1.00
  YS02001641YS02001644 CONDUIT    389.51     0  02:00      0.50    1.26    1.00
  YS02001647YS02001649 CONDUIT    586.94     0  02:00      0.75    0.31    1.00
  YS02006553YS02006556 CONDUIT    493.26     0  01:57      0.63    0.42    1.00
  YS02006556YS02006558 CONDUIT    497.08     0  01:56      0.63    0.39    1.00
  YSB6556YSB1171       CONDUIT     32.08     0  02:00      0.10    0.03    0.74
  YS02001907YS02006553 CONDUIT    494.37     0  01:57      0.55    0.58    1.00
  YS02006558YS02006561 CONDUIT    781.26     0  02:00      3.13    1.73    0.83
  YS02001633YS02163601 CONDUIT    389.59     0  02:00      0.50    0.41    1.00
  YS02001644YS02001647 CONDUIT    587.08     0  02:00      0.75    0.34    1.00
  YS02001745YS02001748 CONDUIT    218.08     0  01:56      1.64    0.08    0.56
  YS02001748YS02001751 CONDUIT    260.28     0  01:59      1.19    0.13    0.91
  YS02001751YS02001754 CONDUIT    178.54     0  01:56      0.98    0.09    1.00
  YS02001754YS02001757 CONDUIT    177.53     0  01:56      0.33    0.07    1.00
  YS02001882YS02001884 CONDUIT     13.46     0  01:58      0.11    0.02    0.78
  YS02001884YS02001887 CONDUIT     23.08     0  01:58      0.08    0.03    0.87
  YS02001890YS02001895 CONDUIT    337.91     0  02:00      0.49    0.16    0.84
  YS02001895YS02001898 CONDUIT    323.69     0  01:59      0.62    0.56    0.70
  YS02001898YS02001901 CONDUIT    310.07     0  01:59      0.53    0.20    0.78
  YS02001901YS02001904 CONDUIT    294.77     0  01:58      0.47    0.46    0.83
  YS02001904YS02001907 CONDUIT    294.57     0  01:57      0.41    0.10    0.91
  YS02001887YS02001890 CONDUIT    351.31     0  02:00      0.46    0.60    0.92
  YS02001652YS02001649 CONDUIT    238.59     0  01:57      0.56    0.12    1.00
  YS02001655YS02001652 CONDUIT    237.72     0  01:57      1.05    0.12    1.00
  YS02001658YS02001655 CONDUIT    316.21     0  01:58      1.37    0.13    0.91
  YS02001661YS02001658 CONDUIT    268.15     0  02:00      1.73    0.11    0.64
  YS02001664YS02001661 CONDUIT    265.04     0  02:00      1.63    0.08    0.36
  YSB1154YSB6556       CONDUIT     33.61     0  02:00      0.18    0.06    0.63
  YSB1174YSB1171       CONDUIT     26.89     0  02:00      0.09    0.04    0.75
  YSB1171HS02004479    CONDUIT     57.34     0  02:00      0.54    0.04    0.60
  HS02004881HS02006253 CONDUIT    104.00     0  02:00      2.43    0.02    0.06
  YS02001793JiankangQianchi CONDUIT   1061.25     0  01:49      1.56    0.08    1.00
  YS02001757CaochengTiaoxuchi CONDUIT   1497.97     0  02:00      2.82    0.66    0.64
  WSF200WS02003060     CONDUIT    541.80     0  02:00      1.67    0.12    0.33
  1                    CONDUIT    751.60     0  02:00      3.06    0.26    0.35
  2                    CONDUIT      0.00     0  00:00      0.00    0.00    0.00
  3                    CONDUIT    573.03     0  01:55     10.03    0.91    0.84
  4                    CONDUIT      0.00     0  00:00      0.00    0.00    0.00
  CC-Pump-1            PUMP         0.00     0  00:00              0.00
  CC-Pump-2            PUMP         0.00     0  00:00              0.00
  JK-Pump-1            PUMP       300.00     0  01:44              1.00
  JK-Pump-2            PUMP       300.00     0  01:50              1.00
  XR-Pump-1            PUMP        95.00     0  00:00              1.00
  XR-Pump-2            PUMP        95.00     0  00:25              1.00
  XR-Pump-3            PUMP        95.00     0  01:34              1.00
  XR-Pump-4            PUMP         0.00     0  00:00              0.00
  
  
  ***************************
  Flow Classification Summary
  ***************************
  
  -------------------------------------------------------------------------------------
                      Adjusted    ---------- Fraction of Time in Flow Class ---------- 
                       /Actual         Up    Down  Sub   Sup   Up    Down  Norm  Inlet 
  Conduit               Length    Dry  Dry   Dry   Crit  Crit  Crit  Crit  Ltd   Ctrl  
  -------------------------------------------------------------------------------------
  WS02003066WSF200        1.00   0.61  0.00  0.00  0.00  0.39  0.00  0.00  0.00  0.00
  WS02006287WS02006284    1.00   0.19  0.12  0.00  0.01  0.68  0.00  0.00  0.02  0.00
  WS02006284WS02006280    1.00   0.26  0.00  0.00  0.00  0.00  0.00  0.74  0.00  0.00
  WS02006280WS02006229    1.00   0.26  0.00  0.00  0.00  0.00  0.00  0.74  0.00  0.00
  WS02006229WS02006228    1.00   0.00  0.00  0.00  0.98  0.00  0.00  0.02  0.00  0.00
  WS02006256WS02006235    1.00   0.39  0.00  0.00  0.59  0.02  0.00  0.00  0.03  0.00
  WS02006253WS02006251    1.00   0.09  0.12  0.00  0.75  0.00  0.03  0.00  0.00  0.00
  WS02006252WS02006251    1.00   1.00  0.00  0.00  0.00  0.00  0.00  0.00  0.00  0.00
  WS02006251WS02006249    1.00   0.00  0.00  0.00  1.00  0.00  0.00  0.00  0.72  0.00
  WS02006249WS02006248    1.00   0.00  0.03  0.00  0.54  0.00  0.42  0.00  0.00  0.00
  WS02006248WS02006247    1.00   0.04  0.00  0.00  0.86  0.00  0.00  0.10  0.29  0.00
  WS02006247WS02006245    1.00   0.04  0.00  0.00  0.78  0.00  0.00  0.18  0.00  0.00
  WS02006245WS02006243    1.00   0.06  0.00  0.00  0.61  0.00  0.00  0.33  0.00  0.00
  WS02006243WS02006242    1.00   0.08  0.00  0.00  0.64  0.00  0.00  0.28  0.13  0.00
  WS02006242WS02006240    1.00   0.09  0.23  0.00  0.62  0.00  0.06  0.00  0.00  0.00
  WS02006240WS02006239    1.00   0.32  0.00  0.00  0.53  0.00  0.00  0.15  0.00  0.00
  WS02006239WS02006238    1.00   0.33  0.00  0.00  0.61  0.00  0.00  0.07  0.00  0.00
  WS02006238WS02006235    1.00   0.33  0.05  0.00  0.61  0.00  0.00  0.00  0.00  0.00
  WS02006235WS02006234    1.00   0.40  0.00  0.00  0.53  0.00  0.07  0.00  0.00  0.00
  WS02006234WS02006232    1.00   0.40  0.00  0.00  0.60  0.00  0.00  0.00  0.05  0.00
  WS02006232WS02006231    1.00   0.40  0.00  0.00  0.58  0.01  0.00  0.00  0.01  0.00
  WS02006231WS02006230    1.00   0.38  0.00  0.00  0.62  0.00  0.00  0.00  0.00  0.00
  WS02006230WS02006229    1.00   0.00  0.00  0.00  0.94  0.00  0.00  0.06  0.00  0.00
  WS02006228WS02006109    1.00   0.00  0.00  0.00  1.00  0.00  0.00  0.00  0.01  0.00
  WS02006116WS02004401    1.00   0.20  0.00  0.00  0.80  0.00  0.00  0.00  0.00  0.00
  WS02006115WS02006116    1.00   0.20  0.00  0.00  0.60  0.00  0.00  0.20  0.00  0.00
  WS02006113WS02006111    1.00   0.12  0.00  0.00  0.06  0.83  0.00  0.00  0.03  0.00
  WS02006112WS02006115    1.00   0.13  0.07  0.00  0.79  0.00  0.01  0.00  0.00  0.00
  WS02006111WS02006112    1.00   0.13  0.00  0.00  0.85  0.01  0.00  0.02  0.68  0.00
  WS02006110WS02006113    1.00   0.02  0.10  0.00  0.88  0.00  0.00  0.00  0.00  0.00
  WS02006109WS02006110    1.00   0.00  0.02  0.00  0.96  0.00  0.02  0.00  0.00  0.00
  WS02004411WS02004412    1.00   0.45  0.00  0.00  0.54  0.00  0.00  0.00  0.00  0.00
  WS02004401WS02004402    1.00   0.21  0.00  0.00  0.79  0.00  0.00  0.00  0.16  0.00
  WS02004413WS02003067    1.00   0.47  0.07  0.00  0.00  0.00  0.45  0.00  0.00  0.00
  WS02004412WS02004413    1.00   0.46  0.00  0.00  0.52  0.02  0.00  0.00  0.01  0.00
  WS02004410WS02004411    1.00   0.45  0.00  0.00  0.55  0.00  0.00  0.00  0.00  0.00
  WS02004409WS02004410    1.00   0.44  0.00  0.00  0.56  0.00  0.00  0.00  0.00  0.00
  WS02004407WS02004409    1.00   0.44  0.00  0.00  0.50  0.06  0.00  0.00  0.16  0.00
  WS02004406WS02004407    1.00   0.00  0.44  0.00  0.56  0.00  0.00  0.00  0.00  0.00
  WS02004405WS02004406    1.00   0.00  0.00  0.00  1.00  0.00  0.00  0.00  0.16  0.00
  WS02004404WS02004405    1.00   0.00  0.00  0.00  1.00  0.00  0.00  0.00  0.00  0.00
  WS02004403WS02004404    1.00   0.00  0.22  0.00  0.78  0.00  0.00  0.00  0.16  0.00
  WS02004402WS02004403    1.00   0.21  0.00  0.00  0.79  0.00  0.00  0.00  0.01  0.00
  WS02004139WS02001211    1.00   0.00  0.00  0.00  0.99  0.00  0.01  0.00  0.00  0.00
  WS02004138WS02004139    1.00   0.00  0.00  0.00  0.98  0.01  0.00  0.00  0.99  0.00
  WS02003067WS02003066    1.00   0.55  0.05  0.00  0.40  0.00  0.00  0.00  0.00  0.00
  WS02001213WS02003059    1.00   0.00  0.01  0.00  0.98  0.00  0.00  0.00  0.00  0.00
  WS02001212WS02001213    1.00   0.01  0.00  0.00  0.24  0.00  0.74  0.00  0.00  0.00
  WS02001211WS02001212    1.00   0.00  0.01  0.00  0.99  0.00  0.00  0.00  0.00  0.00
  WS02003072WS02003073    1.00   0.00  0.00  0.00  0.00  0.00  0.00  1.00  0.00  0.00
  WS02003069WS02003072    1.00   0.00  0.00  0.00  0.99  0.01  0.00  0.00  0.84  0.00
  WS02003060WS02003069    1.00   0.00  0.00  0.00  0.94  0.06  0.00  0.00  0.62  0.00
  WS02003059WS02003060    1.00   0.00  0.00  0.00  0.99  0.01  0.00  0.00  0.07  0.00
  HS02004901HS02004770    1.00   0.24  0.00  0.00  0.76  0.00  0.00  0.00  0.01  0.00
  HS02004876HS02004881    1.00   0.04  0.00  0.00  0.48  0.48  0.00  0.00  0.00  0.00
  HS02004870HS02004876    1.00   0.01  0.00  0.00  0.98  0.01  0.00  0.00  0.79  0.00
  HS02004842HS02004848    1.00   0.00  0.24  0.00  0.76  0.00  0.00  0.00  0.14  0.00
  HS02004837HS02004842    1.00   0.00  0.00  0.00  0.99  0.01  0.00  0.00  0.42  0.00
  HS02004830HS02004837    1.00   0.00  0.00  0.00  1.00  0.00  0.00  0.00  0.96  0.00
  HS02004824HS02004830    1.00   0.00  0.00  0.00  1.00  0.00  0.00  0.00  0.00  0.00
  HS02004817HS02004824    1.00   0.00  0.00  0.00  1.00  0.00  0.00  0.00  1.00  0.00
  HS02004770HS02004777    1.00   0.00  0.24  0.00  0.76  0.00  0.00  0.00  0.11  0.00
  HS02004799HS02004480    1.00   0.01  0.06  0.00  0.70  0.00  0.24  0.00  0.00  0.00
  HS02004792HS02004799    1.00   0.00  0.00  0.00  0.98  0.02  0.00  0.00  0.94  0.00
  HS02004788HS02004792    1.00   0.00  0.00  0.00  0.98  0.02  0.00  0.00  0.92  0.00
  HS02004785HS02004788    1.00   0.00  0.00  0.00  1.00  0.00  0.00  0.00  0.01  0.00
  HS02004777HS02004785    1.00   0.00  0.00  0.00  1.00  0.00  0.00  0.00  0.50  0.00
  HS02004480HS02004478    1.00   0.25  0.00  0.00  0.00  0.00  0.00  0.75  0.00  0.00
  HS02004479HS02004480    1.00   0.07  0.00  0.00  0.93  0.00  0.00  0.00  0.46  0.00
  HS02004862HS02004870    1.00   0.00  0.00  0.00  1.00  0.00  0.00  0.00  0.15  0.00
  HS02004848HS02004852    1.00   0.24  0.00  0.00  0.76  0.00  0.00  0.00  0.05  0.00
  HS02004856HS02004862    1.00   0.00  0.33  0.00  0.67  0.00  0.00  0.00  0.30  0.00
  HS02004852HS02004856    1.00   0.24  0.02  0.00  0.74  0.00  0.00  0.00  0.35  0.00
  HS02004802HS02004478    1.00   0.25  0.01  0.00  0.74  0.00  0.00  0.00  0.10  0.00
  HS02004478WS02006287    1.00   0.31  0.00  0.00  0.07  0.62  0.00  0.00  0.11  0.00
  HS02004817HS02004807    1.00   0.00  0.24  0.00  0.76  0.00  0.00  0.00  0.04  0.00
  HS02004807HS02004802    1.00   0.24  0.00  0.00  0.72  0.00  0.00  0.03  0.01  0.00
  YS02001759YS02001757    1.00   0.00  0.00  0.00  1.00  0.00  0.00  0.00  0.63  0.00
  YS02001762YS02001759    1.00   0.00  0.00  0.00  1.00  0.00  0.00  0.00  0.12  0.00
  YS02001765YS02001762    1.00   0.00  0.00  0.00  1.00  0.00  0.00  0.00  0.57  0.00
  YS02001770YS02001767    1.00   0.00  0.00  0.00  1.00  0.00  0.00  0.00  0.00  0.00
  YS02001774YS02001770    1.00   0.00  0.25  0.00  0.74  0.00  0.00  0.00  0.12  0.00
  YS02001779YS02001774    1.00   0.00  0.00  0.00  1.00  0.00  0.00  0.00  0.73  0.00
  YS02001649YS02001757    1.00   0.00  0.00  0.00  1.00  0.00  0.00  0.00  0.63  0.00
  YS02001767YS02001765    1.00   0.00  0.00  0.00  1.00  0.00  0.00  0.00  0.01  0.00
  YS02006561YS02001783    1.00   0.36  0.00  0.00  0.14  0.50  0.00  0.00  0.12  0.00
  YS02001783YS02001784    1.00   0.00  0.36  0.00  0.64  0.00  0.00  0.00  0.01  0.00
  YS02001784YS02001785    1.00   0.00  0.00  0.00  1.00  0.00  0.00  0.00  0.69  0.00
  YS02001788YS02001790    1.00   0.00  0.00  0.00  0.39  0.61  0.00  0.00  0.77  0.00
  YS02001790YS02001791    1.00   0.00  0.00  0.00  0.06  0.94  0.00  0.00  0.15  0.00
  YS02001791YS02001793    1.00   0.00  0.00  0.00  0.38  0.62  0.00  0.00  0.10  0.00
  YS02001910YS02001907    1.00   0.00  0.00  0.00  0.95  0.01  0.00  0.05  0.48  0.00
  YS02001786YS02001788    1.00   0.00  0.00  0.00  0.40  0.60  0.00  0.00  0.00  0.00
  YS02001915YS02001910    1.00   0.00  0.00  0.00  0.94  0.06  0.00  0.00  0.65  0.00
  YS02001918YS02001915    1.00   0.00  0.01  0.00  0.96  0.03  0.00  0.00  0.34  0.00
  YS02001923YS02001920    1.00   0.00  0.00  0.00  1.00  0.00  0.00  0.00  0.99  0.00
  YS02001926YS02001923    1.00   0.00  0.14  0.00  0.00  0.00  0.86  0.00  0.00  0.00
  YS02001929YS02001926    1.00   0.00  0.24  0.00  0.76  0.00  0.00  0.00  0.49  0.00
  YS02001920YS02001918    1.00   0.00  0.01  0.00  0.99  0.00  0.00  0.00  0.00  0.00
  YS02001629YS02163301    1.00   0.29  0.02  0.00  0.68  0.00  0.00  0.00  0.00  0.00
  YS02001619YS02001622    1.00   0.24  0.00  0.00  0.76  0.00  0.00  0.00  0.00  0.00
  YS02001622YS02001625    1.00   0.24  0.00  0.00  0.76  0.00  0.00  0.00  0.19  0.00
  YS02001625YS02001629    1.00   0.25  0.12  0.00  0.53  0.00  0.11  0.00  0.00  0.00
  YS02163301YS02001633    1.00   0.00  0.29  0.00  0.71  0.00  0.00  0.00  0.00  0.00
  YS02163601YS02164001    1.00   0.00  0.15  0.00  0.85  0.00  0.00  0.00  0.00  0.00
  YS02164001YS02001641    1.00   0.01  0.14  0.00  0.85  0.00  0.00  0.00  0.23  0.00
  YS02001641YS02001644    1.00   0.00  0.01  0.00  0.99  0.00  0.00  0.00  0.00  0.00
  YS02001647YS02001649    1.00   0.00  0.34  0.00  0.66  0.00  0.00  0.00  0.02  0.00
  YS02006553YS02006556    1.00   0.02  0.00  0.00  0.98  0.00  0.00  0.00  0.11  0.00
  YS02006556YS02006558    1.00   0.00  0.01  0.00  0.99  0.00  0.00  0.00  0.00  0.00
  YSB6556YSB1171          1.00   0.07  0.16  0.00  0.77  0.00  0.00  0.00  0.00  0.00
  YS02001907YS02006553    1.00   0.01  0.04  0.00  0.96  0.00  0.00  0.00  0.01  0.00
  YS02006558YS02006561    1.00   0.36  0.00  0.00  0.00  0.64  0.00  0.00  0.12  0.00
  YS02001633YS02163601    1.00   0.00  0.01  0.00  0.99  0.00  0.00  0.00  0.60  0.00
  YS02001644YS02001647    1.00   0.00  0.34  0.00  0.66  0.00  0.00  0.00  0.00  0.00
  YS02001745YS02001748    1.00   0.00  0.00  0.00  0.35  0.04  0.00  0.60  0.05  0.00
  YS02001748YS02001751    1.00   0.00  0.00  0.00  0.79  0.21  0.00  0.00  0.55  0.00
  YS02001751YS02001754    1.00   0.00  0.00  0.00  0.60  0.01  0.00  0.39  0.06  0.00
  YS02001754YS02001757    1.00   0.00  0.00  0.00  0.99  0.01  0.00  0.00  0.72  0.00
  YS02001882YS02001884    1.00   0.29  0.01  0.00  0.70  0.00  0.00  0.00  0.00  0.00
  YS02001884YS02001887    1.00   0.11  0.10  0.00  0.79  0.00  0.00  0.00  0.00  0.00
  YS02001890YS02001895    1.00   0.01  0.30  0.00  0.69  0.00  0.00  0.00  0.00  0.00
  YS02001895YS02001898    1.00   0.31  0.01  0.00  0.62  0.00  0.06  0.00  0.00  0.00
  YS02001898YS02001901    1.00   0.32  0.00  0.00  0.68  0.00  0.00  0.00  0.05  0.00
  YS02001901YS02001904    1.00   0.32  0.00  0.00  0.68  0.00  0.00  0.00  0.00  0.00
  YS02001904YS02001907    1.00   0.01  0.31  0.00  0.68  0.00  0.00  0.00  0.00  0.00
  YS02001887YS02001890    1.00   0.00  0.00  0.00  0.94  0.00  0.05  0.00  0.00  0.00
  YS02001652YS02001649    1.00   0.00  0.00  0.00  0.98  0.02  0.00  0.00  0.65  0.00
  YS02001655YS02001652    1.00   0.00  0.00  0.00  0.60  0.01  0.00  0.39  0.06  0.00
  YS02001658YS02001655    1.00   0.00  0.27  0.00  0.53  0.20  0.00  0.00  0.12  0.00
  YS02001661YS02001658    1.00   0.27  0.00  0.00  0.34  0.39  0.00  0.00  0.04  0.00
  YS02001664YS02001661    1.00   0.24  0.00  0.00  0.32  0.44  0.00  0.00  0.48  0.00
  YSB1154YSB6556          1.00   0.23  0.00  0.00  0.77  0.00  0.00  0.00  0.06  0.00
  YSB1174YSB1171          1.00   0.09  0.08  0.00  0.83  0.00  0.00  0.00  0.00  0.00
  YSB1171HS02004479       1.00   0.07  0.00  0.00  0.90  0.00  0.00  0.02  0.42  0.00
  HS02004881HS02006253    1.00   0.10  0.00  0.00  0.00  0.00  0.00  0.90  0.00  0.00
  YS02001793JiankangQianchi    1.00   0.00  0.00  0.00  1.00  0.00  0.00  0.00  0.85  0.00
  YS02001757CaochengTiaoxuchi    1.00   0.00  0.46  0.00  0.30  0.24  0.00  0.00  0.00  0.00
  WSF200WS02003060        1.00   0.00  0.61  0.00  0.39  0.00  0.00  0.00  0.03  0.00
  1                       1.00   0.00  0.00  0.00  0.00  1.00  0.00  0.00  0.00  0.00
  2                       1.00   1.00  0.00  0.00  0.00  0.00  0.00  0.00  0.00  0.00
  3                       1.00   0.51  0.00  0.00  0.00  0.49  0.00  0.00  0.00  0.00
  4                       1.00   1.00  0.00  0.00  0.00  0.00  0.00  0.00  0.00  0.00
  
  
  *************************
  Conduit Surcharge Summary
  *************************
  
  ----------------------------------------------------------------------------
                                                           Hours        Hours 
                         --------- Hours Full --------   Above Full   Capacity
  Conduit                Both Ends  Upstream  Dnstream   Normal Flow   Limited
  ----------------------------------------------------------------------------
  WS02006229WS02006228        0.22      0.22      0.22      0.27         0.22
  WS02006256WS02006235        0.25      0.25      0.37      0.26         0.01
  WS02006239WS02006238        0.01      0.01      0.01      0.01         0.01
  WS02006238WS02006235        0.01      0.01      0.02      0.01         0.01
  WS02006235WS02006234        0.01      0.01      0.01      0.25         0.01
  WS02006234WS02006232        0.01      0.01      0.09      0.01         0.01
  WS02006232WS02006231        0.01      0.01      0.09      0.01         0.01
  WS02006231WS02006230        0.01      0.01      0.02      0.23         0.01
  WS02006230WS02006229        0.23      0.23      0.23      0.23         0.22
  WS02006228WS02006109        0.22      0.22      0.22      0.32         0.22
  WS02006112WS02006115        0.01      0.01      0.11      0.01         0.01
  WS02006111WS02006112        0.01      0.01      0.21      0.01         0.01
  WS02006110WS02006113        0.01      0.01      0.22      0.01         0.01
  WS02006109WS02006110        0.11      0.11      0.22      0.12         0.01
  WS02004405WS02004406        0.01      0.01      0.01      0.09         0.01
  WS02004404WS02004405        0.01      0.02      0.01      0.33         0.01
  WS02004403WS02004404        0.01      0.01      0.02      0.01         0.01
  WS02003072WS02003073        0.01      0.01      0.01      0.12         0.01
  HS02004480HS02004478        0.01      0.01      0.01      0.26         0.01
  YS02001759YS02001757        0.19      0.19      0.22      0.01         0.01
  YS02001762YS02001759        0.18      0.18      0.19      0.01         0.01
  YS02001765YS02001762        0.16      0.16      0.18      0.01         0.01
  YS02001770YS02001767        0.16      0.16      0.16      0.04         0.07
  YS02001774YS02001770        0.14      0.14      0.17      0.01         0.01
  YS02001779YS02001774        0.10      0.10      0.17      0.01         0.01
  YS02001649YS02001757        0.18      0.18      0.22      0.01         0.01
  YS02001767YS02001765        0.16      0.16      0.16      0.01         0.01
  YS02001783YS02001784        0.01      0.01      0.01      0.05         0.01
  YS02001784YS02001785        0.01      0.01      0.01      0.17         0.01
  YS02001791YS02001793        0.01      0.01      0.11      0.01         0.01
  YS02001910YS02001907        0.01      0.01      0.11      0.01         0.01
  YS02001786YS02001788        0.01      0.01      0.01      0.12         0.01
  YS02001629YS02163301        0.14      0.14      0.15      0.01         0.01
  YS02001619YS02001622        0.02      0.02      0.04      0.01         0.01
  YS02001622YS02001625        0.04      0.04      0.13      0.01         0.01
  YS02001625YS02001629        0.02      0.02      0.13      0.01         0.01
  YS02163301YS02001633        0.15      0.15      0.16      0.01         0.01
  YS02163601YS02164001        0.16      0.16      0.17      0.01         0.01
  YS02164001YS02001641        0.16      0.16      0.16      0.01         0.01
  YS02001641YS02001644        0.16      0.16      0.16      0.06         0.09
  YS02001647YS02001649        0.12      0.12      0.18      0.01         0.01
  YS02006553YS02006556        0.04      0.04      0.12      0.01         0.01
  YS02006556YS02006558        0.09      0.09      0.12      0.01         0.01
  YS02001907YS02006553        0.18      0.18      0.21      0.01         0.01
  YS02006558YS02006561        0.01      0.03      0.01      0.17         0.01
  YS02001633YS02163601        0.15      0.15      0.17      0.01         0.01
  YS02001644YS02001647        0.12      0.12      0.16      0.01         0.01
  YS02001748YS02001751        0.01      0.01      0.01      0.01         0.01
  YS02001751YS02001754        0.01      0.01      0.10      0.01         0.01
  YS02001754YS02001757        0.12      0.12      0.22      0.01         0.01
  YS02001904YS02001907        0.01      0.01      0.12      0.01         0.01
  YS02001652YS02001649        0.13      0.13      0.18      0.01         0.01
  YS02001655YS02001652        0.02      0.02      0.12      0.01         0.01
  YS02001658YS02001655        0.01      0.01      0.02      0.01         0.01
  YS02001793JiankangQianchi        0.04      0.04      1.99      0.01         0.01
  YS02001757CaochengTiaoxuchi        0.01      0.01      0.22      0.01         0.01
  3                           0.01      0.01      0.01      0.01         0.01
  
  
  ***************
  Pumping Summary
  ***************
  
  ---------------------------------------------------------------------------------------------------------
                                                  Min       Avg       Max     Total     Power    % Time Off
                        Percent   Number of      Flow      Flow      Flow    Volume     Usage    Pump Curve
  Pump                 Utilized   Start-Ups       LPS       LPS       LPS  10^6 ltr     Kw-hr    Low   High
  ---------------------------------------------------------------------------------------------------------
  CC-Pump-1                0.00           0      0.00      0.00      0.00     0.000      0.00    0.0    0.0
  CC-Pump-2                0.00           0      0.00      0.00      0.00     0.000      0.00    0.0    0.0
  JK-Pump-1               12.87           1      0.00    300.00    300.00     0.278      1.90    0.0    0.0
  JK-Pump-2                6.49           2      0.00    300.00    300.00     0.141      0.92    0.0    0.0
  XR-Pump-1               99.99           1      0.00     95.00     95.00     0.685      5.34    0.0    0.0
  XR-Pump-2               79.27           1      0.00     95.00     95.00     0.543      3.92    0.0    0.0
  XR-Pump-3               21.59           1      0.00     95.00     95.00     0.148      0.84    0.0    0.0
  XR-Pump-4                0.00           0      0.00      0.00      0.00     0.000      0.00    0.0    0.0
  

  Analysis begun on:  Thu Dec  9 20:34:50 2021
  Analysis ended on:  Thu Dec  9 20:34:51 2021
  Total elapsed time: 00:00:01