
  EPA STORM WATER MANAGEMENT MODEL - VERSION 5.1 (Build 5.3.0.dev0)
  --------------------------------------------------------------

  WARNING 04: minimum elevation drop used for Conduit WS02004404WS02004405
  WARNING 03: negative offset ignored for Link YS02001904YS02001907
  
  *********************************************************
  NOTE: The summary statistics displayed in this report are
  based on results found at every computational time step,  
  not just on results from each reporting time step.
  *********************************************************
  
  ****************
  Analysis Options
  ****************
  Flow Units ............... LPS
  Process Models:
    Rainfall/Runoff ........ YES
    RDII ................... NO
    Snowmelt ............... NO
    Groundwater ............ NO
    Flow Routing ........... YES
    Ponding Allowed ........ NO
    Water Quality .......... NO
  Infiltration Method ...... HORTON
  Flow Routing Method ...... DYNWAVE
  Surcharge Method ......... EXTRAN
  Starting Date ............ 08/28/2015 08:00:00
  Ending Date .............. 08/28/2015 15:50:00
  Antecedent Dry Days ...... 8.0
  Report Time Step ......... 00:01:00
  Wet Time Step ............ 00:01:00
  Dry Time Step ............ 00:01:00
  Routing Time Step ........ 5.00 sec
  Variable Time Step ....... YES
  Maximum Trials ........... 8
  Number of Threads ........ 4
  Head Tolerance ........... 0.001500 m
  
  
  **************************        Volume         Depth
  Runoff Quantity Continuity     hectare-m            mm
  **************************     ---------       -------
  Total Precipitation ......        10.759        23.556
  Evaporation Loss .........         0.000         0.000
  Infiltration Loss ........         2.306         5.049
  Surface Runoff ...........         7.193        15.749
  Final Storage ............         1.261         2.760
  Continuity Error (%) .....        -0.012
  
  
  **************************        Volume        Volume
  Flow Routing Continuity        hectare-m      10^6 ltr
  **************************     ---------     ---------
  Dry Weather Inflow .......         0.616         6.165
  Wet Weather Inflow .......         7.192        71.918
  Groundwater Inflow .......         0.000         0.000
  RDII Inflow ..............         0.000         0.000
  External Inflow ..........         0.102         1.024
  External Outflow .........         2.233        22.331
  Flooding Loss ............         5.100        50.998
  Evaporation Loss .........         0.000         0.000
  Exfiltration Loss ........         0.000         0.000
  Initial Stored Volume ....         0.076         0.761
  Final Stored Volume ......         0.655         6.553
  Continuity Error (%) .....        -0.018
  
  
  *************************
  Highest Continuity Errors
  *************************
  Node WS02006252 (82.14%)
  Node YS02001884 (9.94%)
  Node HS02004842 (8.99%)
  Node HS02004817 (1.66%)
  Node YSB1171 (1.48%)
  
  
  ***************************
  Time-Step Critical Elements
  ***************************
  Link 3 (92.68%)
  Link WS02006280WS02006229 (1.69%)
  
  
  ********************************
  Highest Flow Instability Indexes
  ********************************
  Link WS02006113WS02006111 (34)
  Link YS02001619YS02001622 (21)
  Link YS02163601YS02164001 (21)
  Link YS02163301YS02001633 (20)
  Link YS02001629YS02163301 (20)
  
  
  *************************
  Routing Time Step Summary
  *************************
  Minimum Time Step           :     0.50 sec
  Average Time Step           :     0.81 sec
  Maximum Time Step           :     5.00 sec
  Percent in Steady State     :     0.00
  Average Iterations per Step :     3.13
  Percent Not Converging      :     7.53
  
  
  ***************************
  Subcatchment Runoff Summary
  ***************************
  
  ------------------------------------------------------------------------------------------------------------------------------
                            Total      Total      Total      Total     Imperv       Perv      Total       Total     Peak  Runoff
                           Precip      Runon       Evap      Infil     Runoff     Runoff     Runoff      Runoff   Runoff   Coeff
  Subcatchment                 mm         mm         mm         mm         mm         mm         mm    10^6 ltr      LPS
  ------------------------------------------------------------------------------------------------------------------------------
  sub0                      23.56       0.00       0.00       0.98      20.64       0.67      21.31        0.02     5.21   0.905
  sub1                      23.56       0.00       0.00       1.66      19.70       0.93      20.63        0.14    36.55   0.876
  sub2                      23.56       0.00       0.00       6.73      13.93       1.99      15.91        0.15    35.47   0.676
  sub3                      23.56       0.00       0.00       7.01      13.89       1.71      15.59        0.35    79.79   0.662
  sub4                      23.56       0.00       0.00       1.81      19.53       0.78      20.32        0.42    95.78   0.863
  sub5                      23.56       0.00       0.00       1.03      20.59       0.62      21.21        0.24    64.28   0.901
  sub7                      23.56       0.00       0.00       1.30      20.18       0.82      21.00        0.07    20.12   0.891
  sub8                      23.56       0.00       0.00       1.32      20.17       0.80      20.97        0.13    37.22   0.890
  sub9                      23.56       0.00       0.00       1.32      20.17       0.80      20.97        0.10    27.88   0.890
  sub10                     23.56       0.00       0.00       1.18      20.38       0.71      21.08        0.23    62.92   0.895
  sub11                     23.56       0.00       0.00       1.16      20.39       0.73      21.12        0.25    68.69   0.897
  sub12                     23.56       0.00       0.00       1.88      19.30       1.18      20.48        0.18    52.80   0.870
  sub14                     23.56       0.00       0.00       1.32      20.16       0.80      20.96        0.20    54.95   0.890
  sub15                     23.56       0.00       0.00       5.00      15.51       2.07      17.58        0.30    78.31   0.746
  sub16                     23.56       0.00       0.00       5.26      14.86       2.51      17.38        0.18    49.95   0.738
  sub17                     23.56       0.00       0.00       5.12      15.08       2.42      17.50        0.15    40.95   0.743
  sub22                     23.56       0.00       0.00       7.43      12.64       2.70      15.34        0.97   245.70   0.651
  sub23                     23.56       0.00       0.00       6.17      13.97       2.54      16.51        0.79   206.13   0.701
  sub60                     23.56       0.00       0.00       2.42      17.39       0.40      17.79        5.39   724.84   0.755
  sub61                     23.56       0.00       0.00       3.43      17.18       0.57      17.75        5.47   839.41   0.754
  sub62                     23.56       0.00       0.00       1.49      18.82       0.39      19.21        5.91   873.14   0.816
  sub63                     23.56       0.00       0.00       6.13      14.90       0.70      15.59        4.72   759.14   0.662
  sub64                     23.56       0.00       0.00       3.11      16.72       0.42      17.15        5.21   693.86   0.728
  sub65                     23.56       0.00       0.00       2.66      17.04       0.40      17.44        5.36   707.49   0.740
  sub66                     23.56       0.00       0.00       6.34      14.21       0.49      14.70        4.51   622.77   0.624
  sub67                     23.56       0.00       0.00       1.43      19.44       0.46      19.90        6.14  1032.98   0.845
  sub68                     23.56       0.00       0.00       2.73      17.96       0.57      18.53        5.70   906.19   0.787
  sub69                     23.56       0.00       0.00       2.80      18.25       0.73      18.98        4.44   814.62   0.806
  sub70                     23.56      19.38       0.00       9.74      25.77       3.68      29.45        6.74   929.43   0.686
  sub71                     23.56       0.00       0.00       1.52      18.52       0.37      18.88        4.46   627.85   0.802
  sub72                     23.56       0.00       0.00       1.43      15.97       0.22      16.19        3.30   357.09   0.687
  sub73                     23.56      28.68       0.00       9.74      31.04       5.12      36.16        8.50   952.73   0.692
  sub74                     23.56       0.00       0.00      17.10       5.41       0.57       5.98        2.39   440.19   0.254
  
  
  ******************
  Node Depth Summary
  ******************
  
  ---------------------------------------------------------------------------------
                                 Average  Maximum  Maximum  Time of Max    Reported
                                   Depth    Depth      HGL   Occurrence   Max Depth
  Node                 Type       Meters   Meters   Meters  days hr:min      Meters
  ---------------------------------------------------------------------------------
  WS02001211           JUNCTION     0.70     0.78     5.61     0  02:27        0.78
  WS02001212           JUNCTION     0.42     0.52     5.58     0  02:27        0.52
  WS02001213           JUNCTION     0.66     0.80     5.56     0  02:26        0.80
  WS02003069           JUNCTION     0.46     0.68     5.26     0  02:26        0.68
  WS02003072           JUNCTION     0.53     0.72     5.09     0  02:27        0.72
  WS02003073           JUNCTION     0.32     0.45     4.52     0  02:27        0.45
  WS02003060           JUNCTION     0.41     0.60     5.53     0  02:26        0.60
  WS02003066           JUNCTION     0.23     0.38     5.93     0  02:22        0.38
  WS02003059           JUNCTION     0.71     0.86     5.55     0  02:26        0.86
  WS02003067           JUNCTION     0.56     0.81     6.13     0  02:22        0.81
  WS02004401           JUNCTION     0.69     1.19     7.19     0  02:20        1.19
  WS02004402           JUNCTION     0.72     1.18     7.14     0  02:20        1.18
  WS02004403           JUNCTION     0.73     1.16     7.09     0  02:20        1.16
  WS02004404           JUNCTION     0.80     1.21     7.06     0  02:20        1.21
  WS02004406           JUNCTION     0.80     1.14     6.97     0  02:20        1.14
  WS02004409           JUNCTION     0.49     0.92     6.69     0  02:21        0.92
  WS02004410           JUNCTION     0.51     0.91     6.63     0  02:21        0.91
  WS02004411           JUNCTION     0.52     0.90     6.58     0  02:21        0.90
  WS02004412           JUNCTION     0.54     0.88     6.52     0  02:21        0.88
  WS02004413           JUNCTION     0.69     1.01     6.48     0  02:22        1.01
  WS02004405           JUNCTION     0.80     1.19     7.04     0  02:20        1.19
  WS02006109           JUNCTION     0.78     1.47     8.09     0  02:19        1.47
  WS02006110           JUNCTION     0.75     1.30     7.88     0  02:18        1.30
  WS02006111           JUNCTION     0.27     0.79     7.50     0  02:20        0.79
  WS02006112           JUNCTION     0.87     1.50     7.38     0  02:18        1.49
  WS02006113           JUNCTION     0.35     0.80     7.69     0  02:20        0.80
  WS02006115           JUNCTION     0.59     1.16     7.30     0  02:18        1.16
  WS02006116           JUNCTION     0.67     1.21     7.25     0  02:20        1.21
  WS02006230           JUNCTION     0.74     1.62     8.36     0  02:19        1.62
  WS02006231           JUNCTION     0.50     1.23     8.35     0  02:19        1.23
  WS02006232           JUNCTION     0.61     1.30     8.34     0  02:18        1.30
  WS02006234           JUNCTION     0.50     1.17     8.33     0  02:19        1.17
  WS02006235           JUNCTION     0.52     1.16     8.33     0  02:18        1.16
  WS02006238           JUNCTION     0.54     1.18     8.33     0  02:19        1.17
  WS02006240           JUNCTION     0.40     1.02     8.31     0  02:18        1.02
  WS02006242           JUNCTION     0.42     1.04     8.31     0  02:19        1.04
  WS02006243           JUNCTION     0.28     0.88     8.30     0  02:21        0.88
  WS02006245           JUNCTION     0.23     0.81     8.30     0  02:21        0.81
  WS02006247           JUNCTION     0.22     0.79     8.29     0  02:21        0.79
  WS02006248           JUNCTION     0.18     0.70     8.29     0  02:22        0.70
  WS02006249           JUNCTION     0.20     0.69     8.29     0  02:22        0.69
  WS02006239           JUNCTION     0.48     1.11     8.32     0  02:18        1.11
  WS02006251           JUNCTION     0.17     0.64     8.31     0  02:22        0.64
  WS02006252           JUNCTION     0.05     0.07     8.31     0  02:24        0.06
  WS02006253           JUNCTION     0.21     0.68     8.33     0  02:21        0.68
  WS02006256           JUNCTION     1.11     1.61     8.55     0  01:55        1.27
  WS02004138           JUNCTION     0.16     0.17     7.42     0  06:52        0.17
  WS02004407           JUNCTION     0.22     0.39     6.70     0  02:21        0.39
  WS02006228           JUNCTION     0.79     1.62     8.27     0  02:19        1.62
  WS02006229           JUNCTION     0.78     1.68     8.37     0  02:20        1.68
  WS02006280           JUNCTION     0.11     0.33     8.60     0  02:21        0.33
  WS02006284           JUNCTION     0.43     0.73     9.13     0  02:21        0.73
  WS02006287           JUNCTION     0.16     0.48     9.43     0  02:21        0.48
  WSF200               JUNCTION     0.22     0.42     5.66     0  02:24        0.42
  HS02004901           JUNCTION     0.18     0.44    10.26     0  02:19        0.44
  HS02004881           JUNCTION     0.02     0.07     9.10     0  02:20        0.07
  HS02004876           JUNCTION     0.07     0.20     9.23     0  02:20        0.20
  HS02004870           JUNCTION     0.03     0.12     9.41     0  02:20        0.12
  HS02004862           JUNCTION     0.04     0.14     9.52     0  02:20        0.14
  HS02004856           JUNCTION     0.10     0.18     9.60     0  02:20        0.18
  HS02004852           JUNCTION     0.03     0.10     9.61     0  02:20        0.10
  HS02004848           JUNCTION     0.02     0.09     9.69     0  02:20        0.09
  HS02004842           JUNCTION     0.35     0.42     9.69     0  02:20        0.42
  HS02004837           JUNCTION     0.04     0.11     9.69     0  02:20        0.11
  HS02004830           JUNCTION     0.06     0.17     9.64     0  02:21        0.17
  HS02004824           JUNCTION     0.05     0.22     9.63     0  02:21        0.22
  HS02004817           JUNCTION     0.50     0.79     9.64     0  02:21        0.79
  HS02004807           JUNCTION     0.18     0.46     9.63     0  02:21        0.46
  HS02004802           JUNCTION     0.22     0.49     9.61     0  02:21        0.49
  HS02004799           JUNCTION     0.19     0.56     9.78     0  02:20        0.56
  HS02004792           JUNCTION     0.07     0.28     9.80     0  02:20        0.28
  HS02004788           JUNCTION     0.05     0.20    10.10     0  02:20        0.20
  HS02004785           JUNCTION     0.09     0.29    10.20     0  02:20        0.29
  HS02004777           JUNCTION     0.20     0.45    10.25     0  02:19        0.45
  HS02004770           JUNCTION     0.17     0.43    10.26     0  02:20        0.43
  HS02004480           JUNCTION     0.15     0.47     9.71     0  02:20        0.47
  HS02004479           JUNCTION     0.18     0.51     9.71     0  02:20        0.51
  HS02004478           JUNCTION     0.11     0.36     9.59     0  02:20        0.36
  YS02001745           JUNCTION     0.83     1.07     8.58     0  02:48        1.07
  YS02001748           JUNCTION     1.24     1.72     8.80     0  02:03        1.48
  YS02001751           JUNCTION     1.42     1.76     8.64     0  02:03        1.65
  YS02001754           JUNCTION     1.68     1.89     8.50     0  02:48        1.89
  YS02001762           JUNCTION     1.87     2.07     8.47     0  02:38        2.07
  YS02001765           JUNCTION     1.82     2.02     8.47     0  02:38        2.02
  YS02001767           JUNCTION     1.79     1.97     8.46     0  02:38        1.97
  YS02001770           JUNCTION     1.78     1.95     8.44     0  02:24        1.95
  YS02001774           JUNCTION     1.84     1.99     8.41     0  02:24        1.99
  YS02001779           JUNCTION     1.57     1.68     8.37     0  02:03        1.68
  YS02001882           JUNCTION     0.92     1.83     8.55     0  02:04        1.66
  YS02001884           JUNCTION     1.02     1.93     8.55     0  02:04        1.76
  YS02001759           JUNCTION     1.91     2.12     8.48     0  02:38        2.12
  YS02001887           JUNCTION     1.10     1.92     8.46     0  02:04        1.83
  YS02001890           JUNCTION     1.12     1.81     8.32     0  02:04        1.81
  YS02001898           JUNCTION     0.88     1.59     8.32     0  02:06        1.56
  YS02001901           JUNCTION     1.00     1.69     8.30     0  02:06        1.67
  YS02001904           JUNCTION     0.97     1.65     8.28     0  02:06        1.63
  YS02001907           JUNCTION     1.30     1.96     8.25     0  02:06        1.96
  YS02001910           JUNCTION     1.11     1.96     8.46     0  02:07        1.80
  YS02001915           JUNCTION     0.91     2.00     8.72     0  02:04        1.64
  YS02001918           JUNCTION     0.62     1.81     8.88     0  02:06        1.34
  YS02001619           JUNCTION     1.36     1.51     8.44     0  02:46        1.51
  YS02001629           JUNCTION     1.71     1.85     8.40     0  02:03        1.84
  YS02001641           JUNCTION     1.81     1.94     8.37     0  02:04        1.93
  YS02001644           JUNCTION     1.81     1.92     8.35     0  02:04        1.92
  YS02001652           JUNCTION     1.68     2.16     8.76     0  02:10        1.88
  YS02001655           JUNCTION     1.44     2.20     9.05     0  02:13        1.73
  YS02001920           JUNCTION     0.71     1.92     8.93     0  02:07        1.43
  YS02001923           JUNCTION     0.51     1.93     9.19     0  02:07        1.21
  YS02001926           JUNCTION     0.50     1.90     9.35     0  02:07        1.03
  YS02001929           JUNCTION     0.33     1.10     8.80     0  02:07        0.79
  YS02001658           JUNCTION     1.17     2.30     9.44     0  02:10        1.73
  YS02001661           JUNCTION     0.93     2.46     9.86     0  02:10        2.14
  YS02001664           JUNCTION     0.44     0.61     8.54     0  02:35        0.61
  YS02001622           JUNCTION     1.38     1.51     8.42     0  02:46        1.51
  YS02001633           JUNCTION     1.81     1.95     8.41     0  02:03        1.94
  YS02001649           JUNCTION     1.88     2.05     8.44     0  02:09        2.05
  YS02001757           JUNCTION     2.01     2.21     8.47     0  02:38        2.21
  YS02001895           JUNCTION     0.88     1.57     8.32     0  02:06        1.56
  YS02001625           JUNCTION     1.66     1.78     8.38     0  02:03        1.78
  YS02163301           JUNCTION     1.74     1.89     8.41     0  02:03        1.88
  YS02163601           JUNCTION     1.85     1.99     8.39     0  02:16        1.98
  YS02164001           JUNCTION     1.79     1.92     8.38     0  02:08        1.91
  YS02001647           JUNCTION     1.65     1.80     8.41     0  02:10        1.79
  YSB1154              JUNCTION     0.33     0.66     9.72     0  02:20        0.66
  YSB6556              JUNCTION     0.22     0.55     9.72     0  02:20        0.55
  YSB1174              JUNCTION     0.28     0.61     9.72     0  02:20        0.61
  YSB1171              JUNCTION     0.48     0.81     9.72     0  02:20        0.81
  YS02006553           JUNCTION     1.31     1.98     8.26     0  02:06        1.97
  YS02006561           JUNCTION     0.58     1.19     7.85     0  02:06        1.10
  YS02006556           JUNCTION     1.27     1.96     8.28     0  02:06        1.94
  YS02006558           JUNCTION     1.31     2.00     8.27     0  02:06        1.98
  YS02001783           JUNCTION     0.87     1.59     7.73     0  02:06        1.48
  YS02001784           JUNCTION     0.86     1.58     7.65     0  02:03        1.42
  YS02001786           JUNCTION     0.77     1.57     7.60     0  02:03        1.27
  YS02001788           JUNCTION     0.67     1.72     7.70     0  02:03        1.13
  YS02001790           JUNCTION     0.80     1.74     7.38     0  02:03        1.29
  YS02001791           JUNCTION     0.76     1.40     6.87     0  02:03        1.27
  YS02001793           JUNCTION     1.17     2.87     7.71     0  01:50        1.80
  WS02004139           JUNCTION     0.65     0.71     5.62     0  02:27        0.71
  WSC                  OUTFALL      0.32     0.45     1.12     0  02:27        0.45
  3                    OUTFALL      0.16     0.30     6.30     0  02:14        0.30
  4                    OUTFALL      0.02     0.19     7.19     0  02:22        0.19
  5                    OUTFALL      0.00     0.00     5.00     0  00:00        0.00
  JK-storage           STORAGE      5.11     5.80     6.60     0  02:03        5.80
  CC-storage           STORAGE      1.22     1.49     8.49     0  02:44        1.49
  XR-storage           STORAGE      7.66     7.72     5.72     0  01:53        7.72
  
  
  *******************
  Node Inflow Summary
  *******************
  
  -------------------------------------------------------------------------------------------------
                                  Maximum  Maximum                  Lateral       Total        Flow
                                  Lateral    Total  Time of Max      Inflow      Inflow     Balance
                                   Inflow   Inflow   Occurrence      Volume      Volume       Error
  Node                 Type           LPS      LPS  days hr:min    10^6 ltr    10^6 ltr     Percent
  -------------------------------------------------------------------------------------------------
  WS02001211           JUNCTION      7.35   295.15     0  03:16       0.207        7.53       0.505
  WS02001212           JUNCTION      0.00   297.94     0  03:17           0         7.5       0.259
  WS02001213           JUNCTION      0.00   300.31     0  03:17           0        7.48       0.290
  WS02003069           JUNCTION      0.32  1203.45     0  02:26     0.00902        14.8       0.150
  WS02003072           JUNCTION      0.00  1203.44     0  02:26           0        14.8       0.194
  WS02003073           JUNCTION      1.82  1205.27     0  02:27      0.0514        14.8       0.209
  WS02003060           JUNCTION     16.53  1203.14     0  02:25       0.466        14.8       0.145
  WS02003066           JUNCTION      0.00   895.72     0  02:22           0        6.93       0.037
  WS02003059           JUNCTION      0.00   303.79     0  03:16           0        7.46       0.507
  WS02003067           JUNCTION      0.00   895.71     0  02:22           0        6.94       0.087
  WS02004401           JUNCTION      0.00   895.52     0  02:20           0        7.09       0.201
  WS02004402           JUNCTION      0.00   895.52     0  02:20           0        7.07       0.198
  WS02004403           JUNCTION      0.00   895.53     0  02:20           0        7.06       0.187
  WS02004404           JUNCTION      0.16   895.69     0  02:21     0.00457        7.05       0.147
  WS02004406           JUNCTION      0.00   895.73     0  02:21           0        7.02       0.360
  WS02004409           JUNCTION      0.00   895.73     0  02:21           0           7       0.111
  WS02004410           JUNCTION      0.00   895.74     0  02:21           0        6.99       0.139
  WS02004411           JUNCTION      0.00   895.71     0  02:21           0        6.98       0.152
  WS02004412           JUNCTION      0.00   895.70     0  02:21           0        6.97       0.178
  WS02004413           JUNCTION      0.00   895.70     0  02:22           0        6.96       0.289
  WS02004405           JUNCTION      0.04   895.73     0  02:21     0.00107        7.04       0.227
  WS02006109           JUNCTION      1.23   858.31     0  02:16      0.0347        7.01       0.207
  WS02006110           JUNCTION      0.00   858.30     0  02:16           0           7       0.186
  WS02006111           JUNCTION      0.00   856.02     0  02:24           0        6.98       0.026
  WS02006112           JUNCTION     40.95   895.53     0  02:20        0.15        7.13       0.261
  WS02006113           JUNCTION      0.00   858.29     0  02:16           0        6.98       0.063
  WS02006115           JUNCTION      0.00   895.53     0  02:20           0        7.11       0.180
  WS02006116           JUNCTION      0.00   895.52     0  02:20           0         7.1       0.136
  WS02006230           JUNCTION     10.28   259.87     0  03:14        0.29        3.15       0.230
  WS02006231           JUNCTION      0.00   244.59     0  03:13           0        2.87       0.031
  WS02006232           JUNCTION      0.00   243.94     0  03:13           0        2.87       0.192
  WS02006234           JUNCTION      0.00   240.62     0  03:12           0        2.87       0.069
  WS02006235           JUNCTION      0.00   238.06     0  03:12           0        2.97       0.073
  WS02006238           JUNCTION      0.00   140.40     0  03:07           0        0.66       0.175
  WS02006240           JUNCTION      0.00   134.96     0  03:07           0       0.593       0.262
  WS02006242           JUNCTION      0.00   131.98     0  03:06           0       0.561       0.298
  WS02006243           JUNCTION      0.00   123.93     0  03:06           0       0.536      -0.135
  WS02006245           JUNCTION      0.00   118.19     0  03:06           0       0.531       0.462
  WS02006247           JUNCTION      0.00   114.13     0  03:02           0       0.531       0.005
  WS02006248           JUNCTION      0.00   112.25     0  03:01           0       0.531      -0.031
  WS02006249           JUNCTION      0.00   305.07     0  02:22           0       0.888       0.072
  WS02006239           JUNCTION      0.00   139.13     0  03:07           0       0.627       0.059
  WS02006251           JUNCTION      0.08   216.38     0  02:21     0.00217       0.833       0.004
  WS02006252           JUNCTION      0.00     0.40     0  02:22           0    8.05e-05      66.157 ltr
  WS02006253           JUNCTION      5.21   217.16     0  02:20      0.0173       0.831      -0.012
  WS02006256           JUNCTION      0.00   666.31     0  02:20           0        9.47       0.050
  WS02004138           JUNCTION      0.00   285.00     0  01:34           0        7.36       0.054
  WS02004407           JUNCTION      0.00   895.74     0  02:21           0           7       0.053
  WS02006228           JUNCTION      0.00   857.14     0  02:16           0        6.99       0.134
  WS02006229           JUNCTION      0.00   997.74     0  02:21           0        7.11       0.130
  WS02006280           JUNCTION      0.00   997.66     0  02:21           0        4.09       0.002
  WS02006284           JUNCTION      0.10   997.53     0  02:21      0.0027        4.09       0.028
  WS02006287           JUNCTION      0.00   997.29     0  02:21           0        4.09       0.018
  WSF200               JUNCTION      0.00   895.69     0  02:22           0        6.93       0.029
  HS02004901           JUNCTION     49.95    49.95     0  02:18       0.182       0.182       0.979
  HS02004881           JUNCTION     20.12   212.43     0  02:20      0.0707       0.814       0.029
  HS02004876           JUNCTION     36.55   193.03     0  02:20       0.137       0.743       0.074
  HS02004870           JUNCTION     37.22   156.86     0  02:20       0.134       0.606       0.019
  HS02004862           JUNCTION     35.67   120.70     0  02:20       0.154       0.473       0.037
  HS02004856           JUNCTION     27.88    85.11     0  02:20       0.101        0.32       0.454
  HS02004852           JUNCTION      0.00    57.96     0  02:20           0       0.219       0.027
  HS02004848           JUNCTION     79.79    79.79     0  02:22       0.351       0.351       0.015
  HS02004842           JUNCTION      0.00    23.75     0  02:31           0       0.145       9.881
  HS02004837           JUNCTION     69.27    89.88     0  02:20       0.412       0.543       0.145
  HS02004830           JUNCTION      0.15    89.97     0  02:20     0.00423       0.534       0.233
  HS02004824           JUNCTION     95.83   186.09     0  02:22       0.425       0.958       0.057
  HS02004817           JUNCTION      0.60   188.48     0  02:23      0.0169       0.974       1.687
  HS02004807           JUNCTION     68.69   252.58     0  02:21       0.245         1.2       0.360
  HS02004802           JUNCTION      0.00   252.79     0  02:22           0         1.2       0.333
  HS02004799           JUNCTION     54.95   632.79     0  02:20         0.2        2.49       0.105
  HS02004792           JUNCTION    245.98   578.82     0  02:20       0.977        2.29       0.018
  HS02004788           JUNCTION     79.98   334.17     0  02:20       0.349        1.31       0.030
  HS02004785           JUNCTION      0.15   254.58     0  02:19     0.00423       0.966       0.052
  HS02004777           JUNCTION      0.03   254.79     0  02:19    0.000846       0.966       0.541
  HS02004770           JUNCTION    206.13   255.49     0  02:18       0.787       0.968       0.322
  HS02004480           JUNCTION      0.00   746.54     0  02:20           0         2.9       0.042
  HS02004479           JUNCTION      0.00   114.49     0  02:19           0       0.428       0.172
  HS02004478           JUNCTION      0.00   997.20     0  02:21           0        4.09       0.007
  YS02001745           JUNCTION    724.85   724.85     0  02:49        5.39        5.39       0.213
  YS02001748           JUNCTION      0.04   724.90     0  02:49     0.00127        5.38       0.429
  YS02001751           JUNCTION      0.01   724.91     0  02:49     0.00031        5.36       0.444
  YS02001754           JUNCTION      0.26   725.17     0  02:49     0.00733        5.34       0.460
  YS02001762           JUNCTION      0.00   428.28     0  02:08           0        3.15       0.668
  YS02001765           JUNCTION      0.00   428.36     0  02:08           0        3.15       0.774
  YS02001767           JUNCTION      0.54   428.37     0  02:08      0.0151        3.18       1.130
  YS02001770           JUNCTION    873.30  1256.79     0  02:43        5.91        8.07       0.389
  YS02001774           JUNCTION      0.00   851.17     0  02:53           0        6.12       0.407
  YS02001779           JUNCTION      0.01   851.17     0  02:53    0.000141         6.1       0.252
  YS02001882           JUNCTION      0.00    42.20     0  02:04           0      0.0312       7.990
  YS02001884           JUNCTION      0.00    41.22     0  02:04           0      0.0678      11.039
  YS02001759           JUNCTION    839.45   872.46     0  02:10        5.47        6.44       0.354
  YS02001887           JUNCTION   1033.43  1033.45     0  02:34        6.15        6.18       0.150
  YS02001890           JUNCTION      0.00  1033.44     0  02:34           0        6.13       0.159
  YS02001898           JUNCTION      0.00   517.09     0  02:12           0        4.61       0.084
  YS02001901           JUNCTION      0.00   516.98     0  02:12           0        4.61       0.157
  YS02001904           JUNCTION      0.00   516.94     0  02:18           0         4.6       0.138
  YS02001907           JUNCTION      0.00  1489.81     0  02:52           0        12.4       0.201
  YS02001910           JUNCTION      0.00   973.42     0  02:52           0        7.83       0.171
  YS02001915           JUNCTION    627.87   973.41     0  02:52        4.46        7.88       0.079
  YS02001918           JUNCTION      0.00   387.85     0  02:08           0        3.46       0.053
  YS02001619           JUNCTION    622.77   622.77     0  02:48        4.51        4.51       0.273
  YS02001629           JUNCTION      0.00   261.80     0  02:51           0        2.18       1.333
  YS02001641           JUNCTION      0.00   481.10     0  02:04           0        5.68       0.370
  YS02001644           JUNCTION    693.90  1986.62     0  02:50        5.21        19.4       0.133
  YS02001652           JUNCTION      0.00   759.30     0  02:37           0        4.66       0.502
  YS02001655           JUNCTION      0.15   759.30     0  02:37     0.00434        4.68       0.531
  YS02001920           JUNCTION      2.87   387.83     0  02:08      0.0809        3.44       0.100
  YS02001923           JUNCTION      0.04   359.91     0  03:01     0.00106        3.34       0.041
  YS02001926           JUNCTION      0.05   358.59     0  03:00     0.00147        3.31       0.107
  YS02001929           JUNCTION    357.09   357.09     0  03:01         3.3         3.3       0.025
  YS02001658           JUNCTION      0.00   759.15     0  02:37           0         4.7       0.498
  YS02001661           JUNCTION      0.00   789.55     0  02:10           0        5.05       0.227
  YS02001664           JUNCTION    759.14   759.14     0  02:37        4.72        5.05       0.114
  YS02001622           JUNCTION      0.00   622.77     0  02:48           0        4.49       0.713
  YS02001633           JUNCTION    707.69   707.69     0  02:51        5.37        6.63       0.484
  YS02001649           JUNCTION      0.00  1562.33     0  02:41           0        11.8       0.312
  YS02001757           JUNCTION      0.00  2135.42     0  02:09           0        11.3       0.817
  YS02001895           JUNCTION      0.00   516.94     0  02:18           0        4.61       0.118
  YS02001625           JUNCTION      0.00   883.97     0  02:49           0        5.34       0.733
  YS02163301           JUNCTION      0.00   261.80     0  02:51           0        2.17       1.106
  YS02163601           JUNCTION      0.11   481.64     0  02:04      0.0031         5.7       0.526
  YS02164001           JUNCTION      0.00   481.63     0  02:04           0        5.68       0.350
  YS02001647           JUNCTION      0.00   846.70     0  03:24           0        9.26       0.306
  YSB1154              JUNCTION     64.28    64.28     0  02:18        0.24       0.241       0.605
  YSB6556              JUNCTION      0.00    64.00     0  02:18           0       0.242       0.520
  YSB1174              JUNCTION     52.80    52.80     0  02:17       0.179        0.18       0.721
  YSB1171              JUNCTION      0.00   114.92     0  02:18           0       0.427       1.507
  YS02006553           JUNCTION      0.00   701.23     0  03:55           0         6.7       0.240
  YS02006561           JUNCTION      0.00   974.48     0  02:29           0        12.4       0.005
  YS02006556           JUNCTION      0.00   701.25     0  03:55           0         6.7       0.171
  YS02006558           JUNCTION    907.07   974.50     0  02:29        5.72        12.4       0.046
  YS02001783           JUNCTION      0.00   974.48     0  02:29           0        12.4       0.023
  YS02001784           JUNCTION      1.06   975.54     0  02:29      0.0299        12.4       0.036
  YS02001786           JUNCTION      0.06   975.59     0  02:29     0.00159        12.4       0.032
  YS02001788           JUNCTION      0.07   975.66     0  02:29       0.002        12.4       0.019
  YS02001790           JUNCTION      0.15   975.82     0  02:29     0.00437        12.4       0.025
  YS02001791           JUNCTION      0.00   975.82     0  02:29           0        12.4       0.010
  YS02001793           JUNCTION      0.00   975.82     0  02:29           0        12.4       0.006
  WS02004139           JUNCTION      0.32   285.32     0  01:37     0.00905        7.36       0.490
  WSC                  OUTFALL       0.00  1205.29     0  02:27           0        14.8       0.000
  3                    OUTFALL       0.00   666.30     0  02:20           0        7.16       0.000
  4                    OUTFALL       0.00   305.04     0  02:22           0       0.411       0.000
  5                    OUTFALL       0.00     0.00     0  00:00           0           0       0.000 ltr
  JK-storage           STORAGE       0.00  1061.25     0  01:49           0        12.6       0.078
  CC-storage           STORAGE       0.00  2135.77     0  02:09           0        4.29       1.537
  XR-storage           STORAGE    1504.86  1504.86     0  03:01        16.5        17.1      -0.001
  
  
  **********************
  Node Surcharge Summary
  **********************
  
  Surcharging occurs when water rises above the top of the highest conduit.
  ---------------------------------------------------------------------
                                               Max. Height   Min. Depth
                                   Hours       Above Crown    Below Rim
  Node                 Type      Surcharged         Meters       Meters
  ---------------------------------------------------------------------
  WS02004401           JUNCTION        1.03          0.189        1.471
  WS02004402           JUNCTION        1.07          0.182        1.558
  WS02004403           JUNCTION        1.07          0.163        1.867
  WS02004404           JUNCTION        1.23          0.209        2.571
  WS02004406           JUNCTION        1.17          0.143        2.307
  WS02004413           JUNCTION        0.23          0.007        2.193
  WS02004405           JUNCTION        1.20          0.186        2.614
  WS02006109           JUNCTION        1.60          0.654        1.166
  WS02006110           JUNCTION        1.35          0.387        1.463
  WS02006112           JUNCTION        1.42          0.502        1.178
  WS02006113           JUNCTION        0.02          0.001        1.929
  WS02006115           JUNCTION        0.84          0.152        2.098
  WS02006116           JUNCTION        0.89          0.149        2.141
  WS02006230           JUNCTION        1.16          0.539        1.031
  WS02006231           JUNCTION        1.17          0.521        1.009
  WS02006232           JUNCTION        1.35          0.604        0.876
  WS02006234           JUNCTION        1.16          0.452        0.788
  WS02006235           JUNCTION        1.18          0.453        0.837
  WS02006238           JUNCTION        1.20          0.463        0.967
  WS02006240           JUNCTION        1.01          0.309        1.081
  WS02006242           JUNCTION        1.03          0.310        0.510
  WS02006243           JUNCTION        0.74          0.172        0.598
  WS02006245           JUNCTION        0.45          0.102        0.748
  WS02006247           JUNCTION        0.38          0.084        0.676
  WS02006239           JUNCTION        1.08          0.371        0.919
  WS02006256           JUNCTION        0.01          0.312        0.738
  WS02006228           JUNCTION        1.59          0.790        1.410
  HS02004817           JUNCTION        0.56          0.089        1.651
  YS02001745           JUNCTION        0.93          0.065        1.285
  YS02001748           JUNCTION        5.77          0.645        0.545
  YS02001751           JUNCTION        5.83          0.759        0.441
  YS02001754           JUNCTION        5.93          0.843        0.307
  YS02001762           JUNCTION        6.01          1.075        0.075
  YS02001765           JUNCTION        5.99          1.018        0.082
  YS02001767           JUNCTION        5.99          0.970        0.060
  YS02001770           JUNCTION        5.97          0.920        0.000
  YS02001774           JUNCTION        6.00          0.993        0.057
  YS02001779           JUNCTION        5.92          0.680        0.000
  YS02001882           JUNCTION        2.16          0.830        0.000
  YS02001884           JUNCTION        2.19          0.870        0.000
  YS02001759           JUNCTION        6.01          1.118        0.092
  YS02001887           JUNCTION        2.27          0.875        0.075
  YS02001890           JUNCTION        2.31          0.760        0.000
  YS02001898           JUNCTION        2.13          0.559        0.181
  YS02001901           JUNCTION        2.24          0.690        0.180
  YS02001904           JUNCTION        2.22          0.646        0.204
  YS02001907           JUNCTION        2.73          0.950        0.000
  YS02001910           JUNCTION        2.36          0.956        0.144
  YS02001915           JUNCTION        2.16          1.000        0.000
  YS02001918           JUNCTION        1.94          0.810        0.000
  YS02001619           JUNCTION        5.85          0.509        0.101
  YS02001629           JUNCTION        5.85          0.470        0.000
  YS02001641           JUNCTION        5.99          0.936        0.164
  YS02001644           JUNCTION        5.99          0.920        0.000
  YS02001652           JUNCTION        5.95          1.130        0.000
  YS02001655           JUNCTION        5.85          1.200        0.000
  YS02001920           JUNCTION        1.97          0.920        0.220
  YS02001923           JUNCTION        0.01          0.724        0.096
  YS02001926           JUNCTION        0.01          0.900        0.000
  YS02001929           JUNCTION        0.01          0.104        0.676
  YS02001658           JUNCTION        5.78          1.300        0.000
  YS02001661           JUNCTION        1.09          1.390        0.000
  YS02001622           JUNCTION        5.86          0.513        0.107
  YS02001633           JUNCTION        5.98          0.934        0.126
  YS02001649           JUNCTION        6.00          1.050        0.000
  YS02001757           JUNCTION        6.05          1.210        0.000
  YS02001895           JUNCTION        2.14          0.574        0.176
  YS02001625           JUNCTION        5.96          0.780        0.000
  YS02163301           JUNCTION        5.98          0.893        0.137
  YS02163601           JUNCTION        6.00          0.989        0.091
  YS02164001           JUNCTION        5.99          0.917        0.183
  YS02001647           JUNCTION        5.95          0.800        0.100
  YS02006553           JUNCTION        2.78          0.979        0.211
  YS02006561           JUNCTION        2.05          0.389        0.761
  YS02006556           JUNCTION        2.54          0.925        0.425
  YS02006558           JUNCTION        2.51          0.904        0.496
  YS02001783           JUNCTION        2.54          0.786        0.814
  YS02001784           JUNCTION        2.57          0.782        0.708
  YS02001786           JUNCTION        2.54          0.774        0.656
  YS02001788           JUNCTION        2.53          0.922        0.558
  YS02001790           JUNCTION        2.73          0.937        0.220
  YS02001791           JUNCTION        2.79          0.601        1.319
  YS02001793           JUNCTION        2.95          1.873        0.727
  
  
  *********************
  Node Flooding Summary
  *********************
  
  Flooding refers to all water that overflows a node, whether it ponds or not.
  --------------------------------------------------------------------------
                                                             Total   Maximum
                                 Maximum   Time of Max       Flood    Ponded
                        Hours       Rate    Occurrence      Volume     Depth
  Node                 Flooded       LPS   days hr:min    10^6 ltr    Meters
  --------------------------------------------------------------------------
  YS02001770              0.94    405.62      0  02:43       0.911     0.000
  YS02001779              4.21    851.17      0  02:53       6.078     0.000
  YS02001882              0.01     14.51      0  02:04       0.000     0.000
  YS02001884              0.01      8.88      0  02:04       0.000     0.000
  YS02001890              1.24    517.05      0  02:34       1.509     0.000
  YS02001907              1.80   1402.54      0  02:43       5.701     0.000
  YS02001915              0.01     55.50      0  02:04       0.000     0.000
  YS02001918              0.01     77.70      0  02:06       0.000     0.000
  YS02001629              0.01      1.55      0  02:03       0.000     0.000
  YS02001644              5.74   1986.62      0  02:50      18.560     0.000
  YS02001652              0.01     21.03      0  02:10       0.000     0.000
  YS02001655              0.01     10.87      0  02:13       0.000     0.000
  YS02001926              0.01    199.77      0  02:07       0.000     0.000
  YS02001658              0.01     12.42      0  02:12       0.000     0.000
  YS02001661              0.01    167.05      0  02:10       0.000     0.000
  YS02001649              1.13    715.62      0  02:41       1.874     0.000
  YS02001757              0.65    563.65      0  02:49       0.568     0.000
  YS02001625              2.43    883.97      0  02:49       4.017     0.000
  JK-storage              2.52    375.82      0  02:29       2.933     0.000
  XR-storage              5.73   1219.85      0  03:01       8.846     0.000
  
  
  **********************
  Storage Volume Summary
  **********************
  
  --------------------------------------------------------------------------------------------------
                         Average     Avg  Evap Exfil       Maximum     Max    Time of Max    Maximum
                          Volume    Pcnt  Pcnt  Pcnt        Volume    Pcnt     Occurrence    Outflow
  Storage Unit           1000 m3    Full  Loss  Loss       1000 m3    Full    days hr:min        LPS
  --------------------------------------------------------------------------------------------------
  JK-storage               0.257      88     0     0         0.291     100       0  02:03     701.35
  CC-storage               3.413      22     0     0         4.157      26       0  02:44     205.84
  XR-storage               0.919      99     0     0         0.926     100       0  01:53     285.00
  
  
  ***********************
  Outfall Loading Summary
  ***********************
  
  -----------------------------------------------------------
                         Flow       Avg       Max       Total
                         Freq      Flow      Flow      Volume
  Outfall Node           Pcnt       LPS       LPS    10^6 ltr
  -----------------------------------------------------------
  WSC                  100.00    651.28   1205.29      14.765
  3                     93.48    392.82    666.30       7.155
  4                     18.25    127.34    305.04       0.411
  5                      0.00      0.00      0.00       0.000
  -----------------------------------------------------------
  System                52.93   1171.44   2164.98      22.331
  
  
  ********************
  Link Flow Summary
  ********************
  
  -----------------------------------------------------------------------------
                                 Maximum  Time of Max   Maximum    Max/    Max/
                                  |Flow|   Occurrence   |Veloc|    Full    Full
  Link                 Type          LPS  days hr:min     m/sec    Flow   Depth
  -----------------------------------------------------------------------------
  WS02003066WSF200     CONDUIT    895.69     0  02:22      2.98    0.15    0.31
  WS02006287WS02006284 CONDUIT    997.43     0  02:21      2.68    0.46    0.48
  WS02006284WS02006280 CONDUIT    997.66     0  02:21      2.90    0.42    0.45
  WS02006280WS02006229 CONDUIT    997.74     0  02:21      4.27    0.21    0.42
  WS02006229WS02006228 CONDUIT    857.14     0  02:16      1.71    2.84    1.00
  WS02006256WS02006235 CONDUIT    165.97     0  07:34      2.44    1.76    1.00
  WS02006253WS02006251 CONDUIT    216.30     0  02:21      0.66    0.65    0.94
  WS02006252WS02006251 CONDUIT      0.40     0  02:22      0.40    0.00    0.09
  WS02006251WS02006249 CONDUIT    215.62     0  02:21      0.70    0.62    0.95
  WS02006249WS02006248 CONDUIT    112.25     0  03:01      0.79    0.61    0.98
  WS02006248WS02006247 CONDUIT    114.13     0  03:02      0.74    0.25    1.00
  WS02006247WS02006245 CONDUIT    118.19     0  03:06      0.68    0.94    1.00
  WS02006245WS02006243 CONDUIT    123.93     0  03:06      0.81    0.37    1.00
  WS02006243WS02006242 CONDUIT    131.98     0  03:06      0.65    0.28    1.00
  WS02006242WS02006240 CONDUIT    134.96     0  03:07      0.53    0.54    1.00
  WS02006240WS02006239 CONDUIT    139.13     0  03:07      0.70    0.44    1.00
  WS02006239WS02006238 CONDUIT    140.40     0  03:07      0.61    0.45    1.00
  WS02006238WS02006235 CONDUIT    140.55     0  03:07      0.91    0.31    1.00
  WS02006235WS02006234 CONDUIT    240.62     0  03:12      0.88    2.54    1.00
  WS02006234WS02006232 CONDUIT    243.94     0  03:13      0.71    0.49    1.00
  WS02006232WS02006231 CONDUIT    244.59     0  03:13      0.71    0.51    1.00
  WS02006231WS02006230 CONDUIT    249.59     0  03:14      1.04    3.79    1.00
  WS02006230WS02006229 CONDUIT    265.63     0  03:14      0.69    5.91    1.00
  WS02006228WS02006109 CONDUIT    857.08     0  02:16      1.71    3.74    1.00
  WS02006116WS02004401 CONDUIT    895.52     0  02:20      1.14    1.23    1.00
  WS02006115WS02006116 CONDUIT    895.52     0  02:20      1.14    1.15    1.00
  WS02006113WS02006111 CONDUIT    856.02     0  02:24      2.59    1.03    1.00
  WS02006112WS02006115 CONDUIT    895.53     0  02:20      1.14    0.53    1.00
  WS02006111WS02006112 CONDUIT    856.47     0  02:24      1.71    0.41    0.99
  WS02006110WS02006113 CONDUIT    858.29     0  02:16      1.73    0.78    1.00
  WS02006109WS02006110 CONDUIT    858.30     0  02:16      1.71    1.65    1.00
  WS02004411WS02004412 CONDUIT    895.70     0  02:21      1.21    1.27    0.89
  WS02004401WS02004402 CONDUIT    895.52     0  02:20      1.14    1.08    1.00
  WS02004413WS02003067 CONDUIT    895.71     0  02:22      1.49    0.38    0.71
  WS02004412WS02004413 CONDUIT    895.70     0  02:22      1.17    0.60    0.94
  WS02004410WS02004411 CONDUIT    895.71     0  02:21      1.20    1.22    0.91
  WS02004409WS02004410 CONDUIT    895.74     0  02:21      1.19    1.16    0.92
  WS02004407WS02004409 CONDUIT    895.73     0  02:21      1.65    0.32    0.66
  WS02004406WS02004407 CONDUIT    895.74     0  02:21      1.54    0.40    0.69
  WS02004405WS02004406 CONDUIT    895.73     0  02:21      1.14    1.77    1.00
  WS02004404WS02004405 CONDUIT    895.69     0  02:21      1.14    8.78    1.00
  WS02004403WS02004404 CONDUIT    895.53     0  02:21      1.14    0.65    1.00
  WS02004402WS02004403 CONDUIT    895.53     0  02:20      1.14    1.29    1.00
  WS02004139WS02001211 CONDUIT    287.80     0  03:16      0.54    0.36    0.58
  WS02004138WS02004139 CONDUIT    285.00     0  01:37      2.39    0.06    0.42
  WS02003067WS02003066 CONDUIT    895.72     0  02:22      1.61    0.29    0.49
  WS02001213WS02003059 CONDUIT    303.79     0  03:16      0.59    0.50    0.82
  WS02001212WS02001213 CONDUIT    300.31     0  03:17      1.19    0.46    0.50
  WS02001211WS02001212 CONDUIT    297.94     0  03:17      0.67    0.23    0.65
  WS02003072WS02003073 CONDUIT   1203.44     0  02:27      1.89    2.60    0.55
  WS02003069WS02003072 CONDUIT   1203.44     0  02:26      1.76    0.58    0.58
  WS02003060WS02003069 CONDUIT   1203.13     0  02:26      1.98    0.47    0.53
  WS02003059WS02003060 CONDUIT    308.71     0  03:15      0.82    0.20    0.73
  HS02004901HS02004770 CONDUIT     49.52     0  02:18      0.11    0.19    0.62
  HS02004876HS02004881 CONDUIT    193.06     0  02:20      1.46    2.05    0.19
  HS02004870HS02004876 CONDUIT    156.82     0  02:20      0.99    0.10    0.23
  HS02004842HS02004848 CONDUIT     23.75     0  02:31      0.10    0.01    0.36
  HS02004837HS02004842 CONDUIT     24.37     0  02:32      0.42    0.01    0.38
  HS02004830HS02004837 CONDUIT     89.82     0  02:20      0.70    0.09    0.20
  HS02004824HS02004830 CONDUIT     90.27     0  02:22      0.62    0.12    0.28
  HS02004817HS02004824 CONDUIT    187.88     0  02:23      0.41    0.08    0.66
  HS02004770HS02004777 CONDUIT    254.76     0  02:19      0.58    0.47    0.63
  HS02004799HS02004480 CONDUIT    632.81     0  02:20      1.24    0.80    0.73
  HS02004792HS02004799 CONDUIT    578.77     0  02:20      1.38    0.35    0.60
  HS02004788HS02004792 CONDUIT    334.05     0  02:20      1.41    0.22    0.34
  HS02004785HS02004788 CONDUIT    254.54     0  02:20      1.03    1.92    0.35
  HS02004777HS02004785 CONDUIT    254.43     0  02:19      0.68    0.31    0.53
  HS02004480HS02004478 CONDUIT    746.61     0  02:20      1.77    3.14    0.60
  HS02004479HS02004480 CONDUIT    114.09     0  02:19      0.27    0.11    0.70
  HS02004862HS02004870 CONDUIT    120.72     0  02:21      0.93    0.13    0.18
  HS02004848HS02004852 CONDUIT     57.96     0  02:20      0.60    0.07    0.14
  HS02004856HS02004862 CONDUIT     85.04     0  02:20      0.70    0.08    0.17
  HS02004852HS02004856 CONDUIT     58.03     0  02:21      0.42    0.07    0.20
  HS02004802HS02004478 CONDUIT    253.86     0  02:23      0.60    0.22    0.61
  HS02004478WS02006287 CONDUIT    997.29     0  02:21      2.42    0.28    0.46
  HS02004817HS02004807 CONDUIT    188.67     0  02:23      0.33    0.11    0.83
  HS02004807HS02004802 CONDUIT    252.79     0  02:22      0.55    0.48    0.67
  YS02001759YS02001757 CONDUIT    872.67     0  02:10      1.11    0.62    1.00
  YS02001762YS02001759 CONDUIT    428.53     0  02:08      0.55    0.49    1.00
  YS02001765YS02001762 CONDUIT    428.28     0  02:08      0.55    0.40    1.00
  YS02001770YS02001767 CONDUIT    427.84     0  02:08      0.54    1.69    1.00
  YS02001774YS02001770 CONDUIT    851.17     0  02:53      1.08    0.54    1.00
  YS02001779YS02001774 CONDUIT    851.17     0  02:53      1.08    0.43    1.00
  YS02001649YS02001757 CONDUIT   1044.94     0  02:06      1.33    0.63    1.00
  YS02001767YS02001765 CONDUIT    428.36     0  02:08      0.55    0.54    1.00
  YS02006561YS02001783 CONDUIT    974.48     0  02:29      2.14    0.50    1.00
  YS02001783YS02001784 CONDUIT    974.48     0  02:29      1.94    1.34    1.00
  YS02001784YS02001785 CONDUIT    975.54     0  02:29      1.94    2.27    1.00
  YS02001788YS02001790 CONDUIT    975.66     0  02:29      2.32    0.72    1.00
  YS02001790YS02001791 CONDUIT    975.82     0  02:29      2.77    1.06    1.00
  YS02001791YS02001793 CONDUIT    975.82     0  02:29      4.04    0.42    1.00
  YS02001910YS02001907 CONDUIT    973.42     0  02:52      1.24    0.55    1.00
  YS02001786YS02001788 CONDUIT    975.59     0  02:29      2.23    1.88    1.00
  YS02001915YS02001910 CONDUIT    973.42     0  02:52      1.24    0.48    1.00
  YS02001918YS02001915 CONDUIT    387.84     0  02:08      0.55    0.21    1.00
  YS02001923YS02001920 CONDUIT    384.96     0  02:08      0.89    0.17    1.00
  YS02001926YS02001923 CONDUIT    359.87     0  03:01      0.96    0.51    1.00
  YS02001929YS02001926 CONDUIT    358.54     0  03:00      1.04    0.17    1.00
  YS02001920YS02001918 CONDUIT    387.85     0  02:08      0.85    0.38    1.00
  YS02001629YS02163301 CONDUIT    261.80     0  02:51      0.33    0.32    1.00
  YS02001619YS02001622 CONDUIT    622.77     0  02:48      0.79    0.92    1.00
  YS02001622YS02001625 CONDUIT    622.77     0  02:48      0.79    0.33    1.00
  YS02001625YS02001629 CONDUIT    261.80     0  02:51      0.33    0.12    1.00
  YS02163301YS02001633 CONDUIT    261.80     0  02:51      0.33    0.25    1.00
  YS02163601YS02164001 CONDUIT    481.63     0  02:04      0.61    0.43    1.00
  YS02164001YS02001641 CONDUIT    481.10     0  02:04      0.61    0.66    1.00
  YS02001641YS02001644 CONDUIT    481.23     0  02:04      0.61    1.56    1.00
  YS02001647YS02001649 CONDUIT    846.70     0  03:24      1.08    0.45    1.00
  YS02006553YS02006556 CONDUIT    701.25     0  03:55      0.89    0.60    1.00
  YS02006556YS02006558 CONDUIT    701.32     0  03:55      0.89    0.55    1.00
  YSB6556YSB1171       CONDUIT     63.72     0  02:19      0.18    0.07    0.89
  YS02001907YS02006553 CONDUIT    701.23     0  03:55      0.78    0.82    1.00
  YS02006558YS02006561 CONDUIT    974.48     0  02:29      3.45    2.15    1.00
  YS02001633YS02163601 CONDUIT    481.53     0  02:04      0.61    0.51    1.00
  YS02001644YS02001647 CONDUIT    846.70     0  03:24      1.08    0.50    1.00
  YS02001745YS02001748 CONDUIT    724.85     0  02:49      1.64    0.28    1.00
  YS02001748YS02001751 CONDUIT    724.90     0  02:49      1.19    0.37    1.00
  YS02001751YS02001754 CONDUIT    724.91     0  02:49      0.98    0.35    1.00
  YS02001754YS02001757 CONDUIT    725.17     0  02:49      0.92    0.29    1.00
  YS02001882YS02001884 CONDUIT     42.20     0  02:04      0.11    0.05    1.00
  YS02001884YS02001887 CONDUIT     41.22     0  02:04      0.08    0.05    1.00
  YS02001890YS02001895 CONDUIT    516.94     0  02:18      0.66    0.24    1.00
  YS02001895YS02001898 CONDUIT    517.09     0  02:12      0.66    0.90    1.00
  YS02001898YS02001901 CONDUIT    516.98     0  02:12      0.66    0.33    1.00
  YS02001901YS02001904 CONDUIT    516.94     0  02:18      0.66    0.80    1.00
  YS02001904YS02001907 CONDUIT    516.92     0  02:18      0.66    0.18    1.00
  YS02001887YS02001890 CONDUIT   1033.44     0  02:34      1.32    1.77    1.00
  YS02001652YS02001649 CONDUIT    759.30     0  02:37      0.97    0.38    1.00
  YS02001655YS02001652 CONDUIT    759.30     0  02:37      1.05    0.37    1.00
  YS02001658YS02001655 CONDUIT    759.15     0  02:37      1.37    0.32    1.00
  YS02001661YS02001658 CONDUIT    759.15     0  02:37      1.73    0.30    1.00
  YS02001664YS02001661 CONDUIT    789.55     0  02:10      1.63    0.25    0.81
  YSB1154YSB6556       CONDUIT     64.00     0  02:18      0.18    0.12    0.86
  YSB1174YSB1171       CONDUIT     52.06     0  02:17      0.14    0.08    0.93
  YSB1171HS02004479    CONDUIT    114.49     0  02:19      0.54    0.08    0.79
  HS02004881HS02006253 CONDUIT    212.42     0  02:20      2.54    0.04    0.29
  YS02001793JiankangQianchi CONDUIT   1061.25     0  01:49      1.56    0.08    1.00
  YS02001757CaochengTiaoxuchi CONDUIT   2135.77     0  02:09      3.26    0.94    1.00
  WSF200WS02003060     CONDUIT    895.55     0  02:22      1.97    0.20    0.42
  1                    CONDUIT   1205.29     0  02:27      3.50    0.42    0.45
  2                    CONDUIT    305.04     0  02:22      6.44    0.73    0.64
  3                    CONDUIT    666.30     0  02:20     10.11    1.06    0.95
  4                    CONDUIT      0.00     0  00:00      0.00    0.00    0.00
  CC-Pump-1            PUMP         0.00     0  00:00              0.00
  CC-Pump-2            PUMP         0.00     0  00:00              0.00
  JK-Pump-1            PUMP       300.00     0  01:44              1.00
  JK-Pump-2            PUMP       300.00     0  01:50              1.00
  XR-Pump-1            PUMP        95.00     0  00:00              1.00
  XR-Pump-2            PUMP        95.00     0  00:25              1.00
  XR-Pump-3            PUMP        95.00     0  01:34              1.00
  XR-Pump-4            PUMP         0.00     0  00:00              0.00
  
  
  ***************************
  Flow Classification Summary
  ***************************
  
  -------------------------------------------------------------------------------------
                      Adjusted    ---------- Fraction of Time in Flow Class ---------- 
                       /Actual         Up    Down  Sub   Sup   Up    Down  Norm  Inlet 
  Conduit               Length    Dry  Dry   Dry   Crit  Crit  Crit  Crit  Ltd   Ctrl  
  -------------------------------------------------------------------------------------
  WS02003066WSF200        1.00   0.05  0.00  0.00  0.00  0.95  0.00  0.00  0.57  0.00
  WS02006287WS02006284    1.00   0.02  0.01  0.00  0.50  0.47  0.00  0.00  0.63  0.00
  WS02006284WS02006280    1.00   0.02  0.00  0.00  0.00  0.00  0.00  0.98  0.00  0.00
  WS02006280WS02006229    1.00   0.02  0.00  0.00  0.00  0.12  0.00  0.86  0.01  0.00
  WS02006229WS02006228    1.00   0.00  0.00  0.00  1.00  0.00  0.00  0.00  0.00  0.00
  WS02006256WS02006235    1.00   0.03  0.00  0.00  0.96  0.01  0.00  0.00  0.01  0.00
  WS02006253WS02006251    1.00   0.01  0.01  0.00  0.98  0.00  0.00  0.00  0.00  0.00
  WS02006252WS02006251    1.00   0.15  0.00  0.00  0.01  0.01  0.83  0.00  0.01  0.00
  WS02006251WS02006249    1.00   0.00  0.00  0.00  1.00  0.00  0.00  0.00  0.75  0.00
  WS02006249WS02006248    1.00   0.00  0.00  0.00  0.33  0.00  0.67  0.00  0.00  0.00
  WS02006248WS02006247    1.00   0.00  0.00  0.00  0.99  0.00  0.00  0.01  0.64  0.00
  WS02006247WS02006245    1.00   0.00  0.00  0.00  0.98  0.00  0.00  0.02  0.00  0.00
  WS02006245WS02006243    1.00   0.01  0.00  0.00  0.97  0.00  0.00  0.03  0.04  0.00
  WS02006243WS02006242    1.00   0.01  0.00  0.00  0.97  0.00  0.00  0.02  0.12  0.00
  WS02006242WS02006240    1.00   0.01  0.02  0.00  0.97  0.00  0.01  0.00  0.00  0.00
  WS02006240WS02006239    1.00   0.03  0.00  0.00  0.96  0.00  0.00  0.01  0.02  0.00
  WS02006239WS02006238    1.00   0.03  0.00  0.00  0.97  0.00  0.00  0.01  0.00  0.00
  WS02006238WS02006235    1.00   0.03  0.00  0.00  0.97  0.00  0.00  0.00  0.00  0.00
  WS02006235WS02006234    1.00   0.04  0.00  0.00  0.96  0.00  0.01  0.00  0.00  0.00
  WS02006234WS02006232    1.00   0.04  0.00  0.00  0.96  0.00  0.00  0.00  0.01  0.00
  WS02006232WS02006231    1.00   0.04  0.00  0.00  0.96  0.00  0.00  0.00  0.00  0.00
  WS02006231WS02006230    1.00   0.03  0.00  0.00  0.37  0.00  0.60  0.00  0.00  0.00
  WS02006230WS02006229    1.00   0.00  0.00  0.00  0.99  0.00  0.00  0.01  0.00  0.00
  WS02006228WS02006109    1.00   0.00  0.00  0.00  1.00  0.00  0.00  0.00  0.00  0.00
  WS02006116WS02004401    1.00   0.02  0.00  0.00  0.98  0.00  0.00  0.00  0.00  0.00
  WS02006115WS02006116    1.00   0.02  0.00  0.00  0.96  0.00  0.00  0.02  0.00  0.00
  WS02006113WS02006111    1.00   0.01  0.00  0.00  0.19  0.80  0.00  0.00  0.13  0.00
  WS02006112WS02006115    1.00   0.01  0.01  0.00  0.98  0.00  0.00  0.00  0.00  0.00
  WS02006111WS02006112    1.00   0.01  0.00  0.00  0.99  0.00  0.00  0.00  0.77  0.00
  WS02006110WS02006113    1.00   0.00  0.01  0.00  0.99  0.00  0.00  0.00  0.00  0.00
  WS02006109WS02006110    1.00   0.00  0.00  0.00  1.00  0.00  0.00  0.00  0.00  0.00
  WS02004411WS02004412    1.00   0.04  0.00  0.00  0.96  0.00  0.00  0.00  0.00  0.00
  WS02004401WS02004402    1.00   0.02  0.00  0.00  0.98  0.00  0.00  0.00  0.04  0.00
  WS02004413WS02003067    1.00   0.04  0.01  0.00  0.00  0.00  0.95  0.00  0.00  0.00
  WS02004412WS02004413    1.00   0.04  0.00  0.00  0.96  0.00  0.00  0.00  0.00  0.00
  WS02004410WS02004411    1.00   0.04  0.00  0.00  0.96  0.00  0.00  0.00  0.00  0.00
  WS02004409WS02004410    1.00   0.04  0.00  0.00  0.96  0.00  0.00  0.00  0.00  0.00
  WS02004407WS02004409    1.00   0.04  0.00  0.00  0.96  0.01  0.00  0.00  0.79  0.00
  WS02004406WS02004407    1.00   0.00  0.04  0.00  0.96  0.00  0.00  0.00  0.00  0.00
  WS02004405WS02004406    1.00   0.00  0.00  0.00  1.00  0.00  0.00  0.00  0.04  0.00
  WS02004404WS02004405    1.00   0.00  0.00  0.00  1.00  0.00  0.00  0.00  0.00  0.00
  WS02004403WS02004404    1.00   0.00  0.02  0.00  0.98  0.00  0.00  0.00  0.04  0.00
  WS02004402WS02004403    1.00   0.02  0.00  0.00  0.98  0.00  0.00  0.00  0.00  0.00
  WS02004139WS02001211    1.00   0.00  0.00  0.00  1.00  0.00  0.00  0.00  0.00  0.00
  WS02004138WS02004139    1.00   0.00  0.00  0.00  1.00  0.00  0.00  0.00  1.00  0.00
  WS02003067WS02003066    1.00   0.05  0.00  0.00  0.95  0.00  0.00  0.00  0.00  0.00
  WS02001213WS02003059    1.00   0.00  0.00  0.00  1.00  0.00  0.00  0.00  0.00  0.00
  WS02001212WS02001213    1.00   0.00  0.00  0.00  0.64  0.00  0.36  0.00  0.00  0.00
  WS02001211WS02001212    1.00   0.00  0.00  0.00  1.00  0.00  0.00  0.00  0.00  0.00
  WS02003072WS02003073    1.00   0.00  0.00  0.00  0.00  0.00  0.00  1.00  0.00  0.00
  WS02003069WS02003072    1.00   0.00  0.00  0.00  1.00  0.00  0.00  0.00  0.21  0.00
  WS02003060WS02003069    1.00   0.00  0.00  0.00  0.99  0.01  0.00  0.00  0.16  0.00
  WS02003059WS02003060    1.00   0.00  0.00  0.00  1.00  0.00  0.00  0.00  0.02  0.00
  HS02004901HS02004770    1.00   0.02  0.00  0.00  0.98  0.00  0.00  0.00  0.00  0.00
  HS02004876HS02004881    1.00   0.00  0.00  0.00  0.72  0.28  0.00  0.00  0.00  0.00
  HS02004870HS02004876    1.00   0.00  0.00  0.00  1.00  0.00  0.00  0.00  0.95  0.00
  HS02004842HS02004848    1.00   0.00  0.02  0.00  0.98  0.00  0.00  0.00  0.56  0.00
  HS02004837HS02004842    1.00   0.00  0.00  0.00  1.00  0.00  0.00  0.00  0.11  0.00
  HS02004830HS02004837    1.00   0.00  0.00  0.00  1.00  0.00  0.00  0.00  0.99  0.00
  HS02004824HS02004830    1.00   0.00  0.00  0.00  1.00  0.00  0.00  0.00  0.03  0.00
  HS02004817HS02004824    1.00   0.00  0.00  0.00  1.00  0.00  0.00  0.00  0.86  0.00
  HS02004770HS02004777    1.00   0.00  0.02  0.00  0.98  0.00  0.00  0.00  0.03  0.00
  HS02004799HS02004480    1.00   0.00  0.01  0.00  0.97  0.00  0.02  0.00  0.00  0.00
  HS02004792HS02004799    1.00   0.00  0.00  0.00  1.00  0.00  0.00  0.00  0.98  0.00
  HS02004788HS02004792    1.00   0.00  0.00  0.00  1.00  0.00  0.00  0.00  0.98  0.00
  HS02004785HS02004788    1.00   0.00  0.00  0.00  1.00  0.00  0.00  0.00  0.00  0.00
  HS02004777HS02004785    1.00   0.00  0.00  0.00  1.00  0.00  0.00  0.00  0.13  0.00
  HS02004480HS02004478    1.00   0.02  0.00  0.00  0.58  0.00  0.00  0.40  0.00  0.00
  HS02004479HS02004480    1.00   0.01  0.00  0.00  0.99  0.00  0.00  0.00  0.12  0.00
  HS02004862HS02004870    1.00   0.00  0.00  0.00  1.00  0.00  0.00  0.00  0.04  0.00
  HS02004848HS02004852    1.00   0.02  0.00  0.00  0.98  0.00  0.00  0.00  0.76  0.00
  HS02004856HS02004862    1.00   0.00  0.03  0.00  0.97  0.00  0.00  0.00  0.82  0.00
  HS02004852HS02004856    1.00   0.02  0.00  0.00  0.98  0.00  0.00  0.00  0.70  0.00
  HS02004802HS02004478    1.00   0.02  0.00  0.00  0.98  0.00  0.00  0.00  0.03  0.00
  HS02004478WS02006287    1.00   0.03  0.00  0.00  0.64  0.33  0.00  0.00  0.61  0.00
  HS02004817HS02004807    1.00   0.00  0.02  0.00  0.98  0.00  0.00  0.00  0.01  0.00
  HS02004807HS02004802    1.00   0.02  0.00  0.00  0.98  0.00  0.00  0.00  0.00  0.00
  YS02001759YS02001757    1.00   0.00  0.00  0.00  1.00  0.00  0.00  0.00  0.16  0.00
  YS02001762YS02001759    1.00   0.00  0.00  0.00  1.00  0.00  0.00  0.00  0.03  0.00
  YS02001765YS02001762    1.00   0.00  0.00  0.00  1.00  0.00  0.00  0.00  0.15  0.00
  YS02001770YS02001767    1.00   0.00  0.00  0.00  1.00  0.00  0.00  0.00  0.00  0.00
  YS02001774YS02001770    1.00   0.00  0.02  0.00  0.98  0.00  0.00  0.00  0.03  0.00
  YS02001779YS02001774    1.00   0.00  0.00  0.00  1.00  0.00  0.00  0.00  0.19  0.00
  YS02001649YS02001757    1.00   0.00  0.00  0.00  1.00  0.00  0.00  0.00  0.16  0.00
  YS02001767YS02001765    1.00   0.00  0.00  0.00  1.00  0.00  0.00  0.00  0.00  0.00
  YS02006561YS02001783    1.00   0.03  0.00  0.00  0.54  0.42  0.00  0.00  0.36  0.00
  YS02001783YS02001784    1.00   0.00  0.03  0.00  0.97  0.00  0.00  0.00  0.00  0.00
  YS02001784YS02001785    1.00   0.00  0.00  0.00  1.00  0.00  0.00  0.00  0.18  0.00
  YS02001788YS02001790    1.00   0.00  0.00  0.00  0.58  0.42  0.00  0.00  0.35  0.00
  YS02001790YS02001791    1.00   0.00  0.00  0.00  0.56  0.44  0.00  0.00  0.41  0.00
  YS02001791YS02001793    1.00   0.00  0.00  0.00  0.79  0.21  0.00  0.00  0.24  0.00
  YS02001910YS02001907    1.00   0.00  0.00  0.00  1.00  0.00  0.00  0.00  0.12  0.00
  YS02001786YS02001788    1.00   0.00  0.00  0.00  0.57  0.43  0.00  0.00  0.00  0.00
  YS02001915YS02001910    1.00   0.00  0.00  0.00  0.99  0.01  0.00  0.00  0.17  0.00
  YS02001918YS02001915    1.00   0.00  0.00  0.00  1.00  0.00  0.00  0.00  0.48  0.00
  YS02001923YS02001920    1.00   0.00  0.00  0.00  1.00  0.00  0.00  0.00  0.69  0.00
  YS02001926YS02001923    1.00   0.00  0.01  0.00  0.42  0.00  0.56  0.00  0.00  0.00
  YS02001929YS02001926    1.00   0.00  0.02  0.00  0.98  0.00  0.00  0.00  0.61  0.00
  YS02001920YS02001918    1.00   0.00  0.00  0.00  1.00  0.00  0.00  0.00  0.00  0.00
  YS02001629YS02163301    1.00   0.03  0.00  0.00  0.97  0.00  0.00  0.00  0.00  0.00
  YS02001619YS02001622    1.00   0.02  0.00  0.00  0.98  0.00  0.00  0.00  0.00  0.00
  YS02001622YS02001625    1.00   0.02  0.00  0.00  0.98  0.00  0.00  0.00  0.05  0.00
  YS02001625YS02001629    1.00   0.02  0.01  0.00  0.96  0.00  0.01  0.00  0.00  0.00
  YS02163301YS02001633    1.00   0.00  0.03  0.00  0.97  0.00  0.00  0.00  0.00  0.00
  YS02163601YS02164001    1.00   0.00  0.01  0.00  0.99  0.00  0.00  0.00  0.00  0.00
  YS02164001YS02001641    1.00   0.00  0.01  0.00  0.99  0.00  0.00  0.00  0.06  0.00
  YS02001641YS02001644    1.00   0.00  0.00  0.00  1.00  0.00  0.00  0.00  0.00  0.00
  YS02001647YS02001649    1.00   0.00  0.03  0.00  0.97  0.00  0.00  0.00  0.01  0.00
  YS02006553YS02006556    1.00   0.00  0.00  0.00  1.00  0.00  0.00  0.00  0.03  0.00
  YS02006556YS02006558    1.00   0.00  0.00  0.00  1.00  0.00  0.00  0.00  0.00  0.00
  YSB6556YSB1171          1.00   0.01  0.01  0.00  0.98  0.00  0.00  0.00  0.00  0.00
  YS02001907YS02006553    1.00   0.00  0.00  0.00  1.00  0.00  0.00  0.00  0.00  0.00
  YS02006558YS02006561    1.00   0.03  0.00  0.00  0.46  0.51  0.00  0.00  0.35  0.00
  YS02001633YS02163601    1.00   0.00  0.00  0.00  1.00  0.00  0.00  0.00  0.15  0.00
  YS02001644YS02001647    1.00   0.00  0.03  0.00  0.97  0.00  0.00  0.00  0.00  0.00
  YS02001745YS02001748    1.00   0.00  0.00  0.00  0.94  0.00  0.00  0.05  0.01  0.00
  YS02001748YS02001751    1.00   0.00  0.00  0.00  0.98  0.02  0.00  0.00  0.14  0.00
  YS02001751YS02001754    1.00   0.00  0.00  0.00  0.96  0.00  0.00  0.03  0.02  0.00
  YS02001754YS02001757    1.00   0.00  0.00  0.00  1.00  0.00  0.00  0.00  0.19  0.00
  YS02001882YS02001884    1.00   0.03  0.00  0.00  0.97  0.00  0.00  0.00  0.00  0.00
  YS02001884YS02001887    1.00   0.01  0.01  0.00  0.98  0.00  0.00  0.00  0.00  0.00
  YS02001890YS02001895    1.00   0.00  0.03  0.00  0.97  0.00  0.00  0.00  0.00  0.00
  YS02001895YS02001898    1.00   0.03  0.00  0.00  0.97  0.00  0.01  0.00  0.00  0.00
  YS02001898YS02001901    1.00   0.03  0.00  0.00  0.97  0.00  0.00  0.00  0.01  0.00
  YS02001901YS02001904    1.00   0.03  0.00  0.00  0.97  0.00  0.00  0.00  0.00  0.00
  YS02001904YS02001907    1.00   0.00  0.03  0.00  0.97  0.00  0.00  0.00  0.00  0.00
  YS02001887YS02001890    1.00   0.00  0.00  0.00  0.99  0.00  0.00  0.00  0.00  0.00
  YS02001652YS02001649    1.00   0.00  0.00  0.00  1.00  0.00  0.00  0.00  0.17  0.00
  YS02001655YS02001652    1.00   0.00  0.00  0.00  0.96  0.00  0.00  0.03  0.02  0.00
  YS02001658YS02001655    1.00   0.00  0.02  0.00  0.96  0.02  0.00  0.00  0.03  0.00
  YS02001661YS02001658    1.00   0.02  0.00  0.00  0.94  0.03  0.00  0.00  0.01  0.00
  YS02001664YS02001661    1.00   0.02  0.00  0.00  0.94  0.04  0.00  0.00  0.13  0.00
  YSB1154YSB6556          1.00   0.02  0.00  0.00  0.98  0.00  0.00  0.00  0.02  0.00
  YSB1174YSB1171          1.00   0.01  0.01  0.00  0.98  0.00  0.00  0.00  0.00  0.00
  YSB1171HS02004479       1.00   0.01  0.00  0.00  0.99  0.00  0.00  0.00  0.11  0.00
  HS02004881HS02006253    1.00   0.01  0.00  0.00  0.15  0.07  0.00  0.78  0.14  0.00
  YS02001793JiankangQianchi    1.00   0.00  0.00  0.00  1.00  0.00  0.00  0.00  0.36  0.00
  YS02001757CaochengTiaoxuchi    1.00   0.00  0.04  0.00  0.91  0.05  0.00  0.00  0.00  0.00
  WSF200WS02003060        1.00   0.00  0.05  0.00  0.85  0.10  0.00  0.00  0.54  0.00
  1                       1.00   0.00  0.00  0.00  0.00  1.00  0.00  0.00  0.51  0.00
  2                       1.00   0.82  0.00  0.00  0.00  0.18  0.00  0.00  0.03  0.00
  3                       1.00   0.07  0.00  0.00  0.00  0.93  0.00  0.00  0.03  0.00
  4                       1.00   1.00  0.00  0.00  0.00  0.00  0.00  0.00  0.00  0.00
  
  
  *************************
  Conduit Surcharge Summary
  *************************
  
  ----------------------------------------------------------------------------
                                                           Hours        Hours 
                         --------- Hours Full --------   Above Full   Capacity
  Conduit                Both Ends  Upstream  Dnstream   Normal Flow   Limited
  ----------------------------------------------------------------------------
  WS02006229WS02006228        1.59      1.61      1.59      1.80         1.59
  WS02006256WS02006235        5.34      5.35      6.18      4.28         0.01
  WS02006248WS02006247        0.06      0.06      0.38      0.01         0.01
  WS02006247WS02006245        0.43      0.43      0.45      0.01         0.01
  WS02006245WS02006243        0.50      0.50      0.74      0.01         0.01
  WS02006243WS02006242        0.79      0.79      1.03      0.01         0.01
  WS02006242WS02006240        1.01      1.01      1.07      0.01         0.01
  WS02006240WS02006239        1.03      1.03      1.08      0.01         0.01
  WS02006239WS02006238        1.14      1.14      1.20      0.01         0.01
  WS02006238WS02006235        1.20      1.20      1.23      0.01         0.01
  WS02006235WS02006234        1.16      1.16      1.18      4.97         0.21
  WS02006234WS02006232        1.19      1.19      1.35      0.01         0.01
  WS02006232WS02006231        1.17      1.17      1.35      0.01         0.01
  WS02006231WS02006230        1.16      1.16      1.19      5.31         0.26
  WS02006230WS02006229        1.67      1.69      1.67      5.81         1.33
  WS02006228WS02006109        1.60      1.63      1.60      2.13         1.60
  WS02006116WS02004401        1.02      1.02      1.03      0.97         0.97
  WS02006115WS02006116        0.88      0.88      0.89      0.76         0.76
  WS02006113WS02006111        0.01      0.02      0.01      0.28         0.01
  WS02006112WS02006115        0.84      0.84      1.42      0.01         0.01
  WS02006111WS02006112        0.01      0.01      1.85      0.01         0.01
  WS02006110WS02006113        0.02      0.02      1.62      0.01         0.01
  WS02006109WS02006110        1.35      1.35      1.63      1.36         0.01
  WS02004411WS02004412        0.01      0.01      0.01      1.01         0.01
  WS02004401WS02004402        1.03      1.03      1.07      0.50         0.50
  WS02004413WS02003067        0.01      0.01      0.23      0.01         0.01
  WS02004412WS02004413        0.01      0.01      0.23      0.01         0.01
  WS02004410WS02004411        0.01      0.01      0.01      0.95         0.01
  WS02004409WS02004410        0.01      0.01      0.01      0.79         0.01
  WS02004406WS02004407        0.01      0.01      1.17      0.01         0.01
  WS02004405WS02004406        1.17      1.20      1.17      1.39         1.17
  WS02004404WS02004405        1.20      1.23      1.20      5.71         1.20
  WS02004403WS02004404        1.07      1.07      1.23      0.01         0.01
  WS02004402WS02004403        1.07      1.07      1.07      1.02         1.02
  WS02003072WS02003073        0.01      0.01      0.01      4.74         0.01
  HS02004876HS02004881        0.01      0.01      0.01      1.03         0.01
  HS02004817HS02004824        0.01      0.01      0.56      0.01         0.01
  HS02004785HS02004788        0.01      0.01      0.01      0.96         0.01
  HS02004480HS02004478        0.01      0.01      0.01      1.41         0.01
  HS02004817HS02004807        0.01      0.01      0.56      0.01         0.01
  YS02001759YS02001757        6.01      6.01      6.05      0.01         0.01
  YS02001762YS02001759        6.01      6.01      6.01      0.01         0.01
  YS02001765YS02001762        5.99      5.99      6.01      0.01         0.01
  YS02001770YS02001767        5.99      5.99      5.99      1.63         0.43
  YS02001774YS02001770        5.97      5.97      6.00      0.01         0.01
  YS02001779YS02001774        5.92      5.92      6.00      0.01         0.01
  YS02001649YS02001757        6.00      6.00      6.05      0.01         0.01
  YS02001767YS02001765        5.99      5.99      5.99      0.01         0.01
  YS02006561YS02001783        2.05      2.05      2.54      0.01         0.01
  YS02001783YS02001784        2.54      2.54      2.57      2.46         2.36
  YS02001784YS02001785        2.54      2.57      2.54      3.24         2.53
  YS02001788YS02001790        2.53      2.53      2.73      0.01         0.01
  YS02001790YS02001791        2.73      2.73      2.79      1.90         1.90
  YS02001791YS02001793        2.79      2.79      3.20      0.01         0.01
  YS02001910YS02001907        2.36      2.36      2.73      0.01         0.01
  YS02001786YS02001788        2.53      2.54      2.53      2.92         2.53
  YS02001915YS02001910        2.16      2.16      2.36      0.01         0.01
  YS02001918YS02001915        1.94      1.94      2.16      0.01         0.01
  YS02001923YS02001920        1.77      1.77      1.97      0.01         0.01
  YS02001926YS02001923        0.01      0.01      0.01      0.01         0.01
  YS02001929YS02001926        0.01      0.01      0.01      0.01         0.01
  YS02001920YS02001918        1.94      1.94      1.97      0.01         0.01
  YS02001629YS02163301        5.97      5.97      5.98      0.01         0.01
  YS02001619YS02001622        5.85      5.85      5.86      0.01         0.01
  YS02001622YS02001625        5.86      5.86      5.96      0.01         0.01
  YS02001625YS02001629        5.85      5.85      5.96      0.01         0.01
  YS02163301YS02001633        5.98      5.98      5.98      0.01         0.01
  YS02163601YS02164001        5.99      5.99      6.00      0.01         0.01
  YS02164001YS02001641        5.99      5.99      5.99      0.01         0.01
  YS02001641YS02001644        5.99      5.99      5.99      2.74         2.84
  YS02001647YS02001649        5.95      5.95      6.00      0.01         0.01
  YS02006553YS02006556        2.54      2.54      2.78      0.01         0.01
  YS02006556YS02006558        2.63      2.63      2.83      0.01         0.01
  YSB6556YSB1171              0.01      0.01      0.66      0.01         0.01
  YS02001907YS02006553        3.27      3.27      3.48      0.01         0.01
  YS02006558YS02006561        2.24      2.51      2.24      3.12         2.24
  YS02001633YS02163601        5.98      5.98      6.00      0.01         0.01
  YS02001644YS02001647        5.95      5.95      5.99      0.01         0.01
  YS02001745YS02001748        0.93      0.93      5.77      0.01         0.01
  YS02001748YS02001751        5.79      5.79      5.83      0.01         0.01
  YS02001751YS02001754        5.83      5.83      5.93      0.01         0.01
  YS02001754YS02001757        5.95      5.95      6.05      0.01         0.01
  YS02001882YS02001884        2.16      2.16      2.19      0.01         0.01
  YS02001884YS02001887        2.25      2.25      2.27      0.01         0.01
  YS02001890YS02001895        2.14      2.14      2.37      0.01         0.01
  YS02001895YS02001898        2.13      2.13      2.14      0.01         0.01
  YS02001898YS02001901        2.15      2.15      2.24      0.01         0.01
  YS02001901YS02001904        2.22      2.22      2.24      0.01         0.01
  YS02001904YS02001907        2.22      2.22      2.80      0.01         0.01
  YS02001887YS02001890        2.31      2.31      2.33      1.11         0.01
  YS02001652YS02001649        5.96      5.96      6.00      0.01         0.01
  YS02001655YS02001652        5.85      5.85      5.95      0.01         0.01
  YS02001658YS02001655        5.78      5.78      5.85      0.01         0.01
  YS02001661YS02001658        1.09      1.09      5.78      0.01         0.01
  YS02001664YS02001661        0.01      0.01      2.30      0.01         0.01
  YSB1174YSB1171              0.01      0.01      0.37      0.01         0.01
  YS02001793JiankangQianchi        2.94      2.94      7.82      0.01         0.01
  YS02001757CaochengTiaoxuchi        5.54      5.54      6.05      0.01         0.01
  3                           0.01      0.01      0.38      0.38         0.01
  
  
  ***************
  Pumping Summary
  ***************
  
  ---------------------------------------------------------------------------------------------------------
                                                  Min       Avg       Max     Total     Power    % Time Off
                        Percent   Number of      Flow      Flow      Flow    Volume     Usage    Pump Curve
  Pump                 Utilized   Start-Ups       LPS       LPS       LPS  10^6 ltr     Kw-hr    Low   High
  ---------------------------------------------------------------------------------------------------------
  CC-Pump-1                0.00           0      0.00      0.00      0.00     0.000      0.00    0.0    0.0
  CC-Pump-2                0.00           0      0.00      0.00      0.00     0.000      0.00    0.0    0.0
  JK-Pump-1               69.16           5      0.00    300.00    300.00     5.851     34.52    0.0    0.0
  JK-Pump-2               41.73           7      0.00    300.00    300.00     3.531     16.22    0.0    0.0
  XR-Pump-1              100.00           1      0.00     95.00     95.00     2.679     14.55    0.0    0.0
  XR-Pump-2               94.70           1      0.00     95.00     95.00     2.537     13.12    0.0    0.0
  XR-Pump-3               79.94           1      0.00     95.00     95.00     2.142     10.04    0.0    0.0
  XR-Pump-4                0.00           0      0.00      0.00      0.00     0.000      0.00    0.0    0.0
  

  Analysis begun on:  Thu Dec  9 19:27:13 2021
  Analysis ended on:  Thu Dec  9 19:27:17 2021
  Total elapsed time: 00:00:04