
  EPA STORM WATER MANAGEMENT MODEL - VERSION 5.1 (Build 5.3.0.dev0)
  --------------------------------------------------------------

  WARNING 04: minimum elevation drop used for Conduit WS02004404WS02004405
  WARNING 03: negative offset ignored for Link YS02001904YS02001907
  
  *********************************************************
  NOTE: The summary statistics displayed in this report are
  based on results found at every computational time step,  
  not just on results from each reporting time step.
  *********************************************************
  
  ****************
  Analysis Options
  ****************
  Flow Units ............... LPS
  Process Models:
    Rainfall/Runoff ........ YES
    RDII ................... NO
    Snowmelt ............... NO
    Groundwater ............ NO
    Flow Routing ........... YES
    Ponding Allowed ........ NO
    Water Quality .......... NO
  Infiltration Method ...... HORTON
  Flow Routing Method ...... DYNWAVE
  Surcharge Method ......... EXTRAN
  Starting Date ............ 08/28/2015 08:00:00
  Ending Date .............. 08/28/2015 15:50:00
  Antecedent Dry Days ...... 8.0
  Report Time Step ......... 00:01:00
  Wet Time Step ............ 00:01:00
  Dry Time Step ............ 00:01:00
  Routing Time Step ........ 5.00 sec
  Variable Time Step ....... YES
  Maximum Trials ........... 8
  Number of Threads ........ 4
  Head Tolerance ........... 0.001500 m
  
  
  **************************        Volume         Depth
  Runoff Quantity Continuity     hectare-m            mm
  **************************     ---------       -------
  Total Precipitation ......         2.606         5.704
  Evaporation Loss .........         0.000         0.000
  Infiltration Loss ........         0.653         1.430
  Surface Runoff ...........         1.076         2.357
  Final Storage ............         0.876         1.918
  Continuity Error (%) .....        -0.018
  
  
  **************************        Volume        Volume
  Flow Routing Continuity        hectare-m      10^6 ltr
  **************************     ---------     ---------
  Dry Weather Inflow .......         0.616         6.165
  Wet Weather Inflow .......         1.076        10.758
  Groundwater Inflow .......         0.000         0.000
  RDII Inflow ..............         0.000         0.000
  External Inflow ..........         0.102         1.024
  External Outflow .........         1.699        16.990
  Flooding Loss ............         0.032         0.324
  Evaporation Loss .........         0.000         0.000
  Exfiltration Loss ........         0.000         0.000
  Initial Stored Volume ....         0.076         0.761
  Final Stored Volume ......         0.268         2.682
  Continuity Error (%) .....        -6.894
  
  
  *************************
  Highest Continuity Errors
  *************************
  Node JK-storage (-38.99%)
  Node HS02004842 (29.23%)
  Node YS02001884 (23.51%)
  Node YS02001774 (12.71%)
  Node YSB1171 (7.25%)
  
  
  ***************************
  Time-Step Critical Elements
  ***************************
  Link WS02006252WS02006251 (48.70%)
  Link 3 (39.21%)
  Link WS02006238WS02006235 (5.91%)
  Link WS02006280WS02006229 (2.05%)
  
  
  ********************************
  Highest Flow Instability Indexes
  ********************************
  Link WS02006113WS02006111 (39)
  Link WS02006111WS02006112 (25)
  Link WS02006110WS02006113 (3)
  Link YS02001652YS02001649 (2)
  Link YS02001655YS02001652 (2)
  
  
  *************************
  Routing Time Step Summary
  *************************
  Minimum Time Step           :     0.50 sec
  Average Time Step           :     0.89 sec
  Maximum Time Step           :     5.00 sec
  Percent in Steady State     :    -0.00
  Average Iterations per Step :     2.09
  Percent Not Converging      :     0.98
  
  
  ***************************
  Subcatchment Runoff Summary
  ***************************
  
  ------------------------------------------------------------------------------------------------------------------------------
                            Total      Total      Total      Total     Imperv       Perv      Total       Total     Peak  Runoff
                           Precip      Runon       Evap      Infil     Runoff     Runoff     Runoff      Runoff   Runoff   Coeff
  Subcatchment                 mm         mm         mm         mm         mm         mm         mm    10^6 ltr      LPS
  ------------------------------------------------------------------------------------------------------------------------------
  sub0                       5.70       0.00       0.00       0.40       4.04       0.00       4.04        0.00     1.41   0.708
  sub1                       5.70       0.00       0.00       0.63       3.82       0.00       3.82        0.03     7.22   0.670
  sub2                       5.70       0.00       0.00       2.11       2.69       0.00       2.69        0.03     6.36   0.471
  sub3                       5.70       0.00       0.00       2.11       2.65       0.00       2.65        0.06    13.02   0.465
  sub4                       5.70       0.00       0.00       0.63       3.69       0.00       3.69        0.08    14.55   0.646
  sub5                       5.70       0.00       0.00       0.40       3.99       0.00       3.99        0.05    12.85   0.700
  sub7                       5.70       0.00       0.00       0.51       3.94       0.00       3.94        0.01     4.57   0.690
  sub8                       5.70       0.00       0.00       0.51       3.93       0.00       3.93        0.03     8.03   0.689
  sub9                       5.70       0.00       0.00       0.51       3.93       0.00       3.93        0.02     5.95   0.688
  sub10                      5.70       0.00       0.00       0.46       3.96       0.00       3.96        0.04    12.84   0.694
  sub11                      5.70       0.00       0.00       0.46       3.97       0.00       3.97        0.05    15.14   0.697
  sub12                      5.70       0.00       0.00       0.74       3.77       0.00       3.77        0.03    12.93   0.662
  sub14                      5.70       0.00       0.00       0.51       3.92       0.00       3.92        0.04    11.63   0.688
  sub15                      5.70       0.00       0.00       1.71       3.02       0.00       3.02        0.05    15.75   0.529
  sub16                      5.70       0.00       0.00       1.88       2.90       0.00       2.90        0.03    11.34   0.509
  sub17                      5.70       0.00       0.00       1.83       2.95       0.00       2.95        0.03     9.14   0.516
  sub22                      5.70       0.00       0.00       2.45       2.46       0.00       2.46        0.16    51.83   0.432
  sub23                      5.70       0.00       0.00       2.11       2.72       0.00       2.72        0.13    44.17   0.478
  sub60                      5.70       0.00       0.00       0.68       2.62       0.00       2.62        0.79    72.66   0.459
  sub61                      5.70       0.00       0.00       0.97       2.81       0.00       2.81        0.87    91.45   0.493
  sub62                      5.70       0.00       0.00       0.46       3.01       0.00       3.01        0.93    93.36   0.528
  sub63                      5.70       0.00       0.00       1.65       2.51       0.00       2.51        0.76    85.50   0.439
  sub64                      5.70       0.00       0.00       0.86       2.50       0.00       2.50        0.76    68.99   0.438
  sub65                      5.70       0.00       0.00       0.74       2.53       0.00       2.53        0.78    69.98   0.444
  sub66                      5.70       0.00       0.00       1.65       2.19       0.00       2.19        0.67    63.30   0.383
  sub67                      5.70       0.00       0.00       0.46       3.32       0.00       3.32        1.02   120.30   0.582
  sub68                      5.70       0.00       0.00       0.80       2.99       0.00       2.99        0.92   101.21   0.525
  sub69                      5.70       0.00       0.00       0.86       3.24       0.00       3.24        0.76   101.03   0.568
  sub70                      5.70       3.31       0.00       3.06       3.95       0.00       3.95        0.90    80.29   0.438
  sub71                      5.70       0.00       0.00       0.46       2.88       0.00       2.88        0.68    65.09   0.504
  sub72                      5.70       0.00       0.00       0.40       2.01       0.00       2.01        0.41    30.49   0.353
  sub73                      5.70       3.84       0.00       3.25       4.00       0.00       4.00        0.94    68.79   0.419
  sub74                      5.70       0.00       0.00       4.28       0.98       0.00       0.98        0.39    56.49   0.171
  
  
  ******************
  Node Depth Summary
  ******************
  
  ---------------------------------------------------------------------------------
                                 Average  Maximum  Maximum  Time of Max    Reported
                                   Depth    Depth      HGL   Occurrence   Max Depth
  Node                 Type       Meters   Meters   Meters  days hr:min      Meters
  ---------------------------------------------------------------------------------
  WS02001211           JUNCTION     0.66     0.78     5.61     0  03:00        0.78
  WS02001212           JUNCTION     0.38     0.49     5.55     0  03:01        0.49
  WS02001213           JUNCTION     0.62     0.73     5.49     0  03:01        0.73
  WS02003069           JUNCTION     0.44     0.54     5.13     0  03:02        0.54
  WS02003072           JUNCTION     0.51     0.60     4.98     0  03:03        0.60
  WS02003073           JUNCTION     0.30     0.37     4.43     0  03:04        0.37
  WS02003060           JUNCTION     0.39     0.48     5.41     0  03:02        0.48
  WS02003066           JUNCTION     0.23     0.29     5.84     0  02:42        0.29
  WS02003059           JUNCTION     0.68     0.78     5.47     0  03:02        0.78
  WS02003067           JUNCTION     0.57     0.68     6.00     0  02:42        0.68
  WS02004401           JUNCTION     0.67     0.82     6.82     0  02:38        0.82
  WS02004402           JUNCTION     0.70     0.84     6.80     0  02:38        0.84
  WS02004403           JUNCTION     0.72     0.86     6.79     0  02:38        0.86
  WS02004404           JUNCTION     0.79     0.93     6.78     0  02:38        0.93
  WS02004406           JUNCTION     0.80     0.93     6.76     0  02:39        0.93
  WS02004409           JUNCTION     0.49     0.63     6.40     0  02:41        0.63
  WS02004410           JUNCTION     0.51     0.65     6.37     0  02:41        0.65
  WS02004411           JUNCTION     0.52     0.66     6.34     0  02:42        0.66
  WS02004412           JUNCTION     0.54     0.67     6.31     0  02:42        0.67
  WS02004413           JUNCTION     0.70     0.83     6.30     0  02:42        0.83
  WS02004405           JUNCTION     0.79     0.93     6.78     0  02:38        0.93
  WS02006109           JUNCTION     0.75     0.92     7.54     0  02:34        0.92
  WS02006110           JUNCTION     0.75     0.89     7.47     0  02:34        0.89
  WS02006111           JUNCTION     0.22     0.27     6.98     0  02:36        0.27
  WS02006112           JUNCTION     0.84     1.00     6.89     0  02:37        1.00
  WS02006113           JUNCTION     0.34     0.43     7.32     0  02:35        0.43
  WS02006115           JUNCTION     0.56     0.71     6.85     0  02:37        0.71
  WS02006116           JUNCTION     0.64     0.79     6.83     0  02:38        0.79
  WS02006230           JUNCTION     0.72     0.94     7.68     0  02:35        0.94
  WS02006231           JUNCTION     0.48     0.62     7.74     0  02:37        0.62
  WS02006232           JUNCTION     0.62     0.74     7.78     0  02:37        0.74
  WS02006234           JUNCTION     0.54     0.68     7.84     0  05:46        0.68
  WS02006235           JUNCTION     0.57     0.72     7.88     0  05:46        0.72
  WS02006238           JUNCTION     0.60     0.75     7.89     0  05:46        0.75
  WS02006240           JUNCTION     0.50     0.68     7.97     0  05:47        0.68
  WS02006242           JUNCTION     0.55     0.75     8.02     0  05:46        0.75
  WS02006243           JUNCTION     0.43     0.65     8.07     0  05:47        0.65
  WS02006245           JUNCTION     0.41     0.62     8.11     0  05:47        0.62
  WS02006247           JUNCTION     0.43     0.63     8.13     0  05:47        0.63
  WS02006248           JUNCTION     0.38     0.57     8.16     0  05:47        0.57
  WS02006249           JUNCTION     0.41     0.59     8.19     0  05:48        0.59
  WS02006239           JUNCTION     0.55     0.73     7.94     0  05:46        0.73
  WS02006251           JUNCTION     0.40     0.62     8.29     0  05:48        0.62
  WS02006252           JUNCTION     0.36     0.58     8.83     0  04:40        0.58
  WS02006253           JUNCTION     0.43     0.64     8.29     0  05:48        0.64
  WS02006256           JUNCTION     1.01     1.20     8.14     0  02:38        1.20
  WS02004138           JUNCTION     0.15     0.19     7.44     0  06:50        0.19
  WS02004407           JUNCTION     0.22     0.28     6.60     0  02:39        0.28
  WS02006228           JUNCTION     0.75     0.94     7.59     0  02:34        0.94
  WS02006229           JUNCTION     0.72     0.93     7.63     0  02:34        0.93
  WS02006280           JUNCTION     0.05     0.14     8.41     0  02:18        0.14
  WS02006284           JUNCTION     0.35     0.48     8.88     0  02:18        0.48
  WS02006287           JUNCTION     0.08     0.21     9.16     0  02:18        0.21
  WSF200               JUNCTION     0.22     0.29     5.53     0  02:42        0.29
  HS02004901           JUNCTION     0.11     0.23    10.05     0  02:16        0.23
  HS02004881           JUNCTION     0.01     0.02     9.05     0  02:17        0.02
  HS02004876           JUNCTION     0.03     0.10     9.13     0  02:16        0.10
  HS02004870           JUNCTION     0.01     0.04     9.33     0  02:18        0.04
  HS02004862           JUNCTION     0.01     0.05     9.43     0  02:19        0.05
  HS02004856           JUNCTION     0.07     0.10     9.53     0  02:18        0.10
  HS02004852           JUNCTION     0.01     0.03     9.54     0  02:19        0.03
  HS02004848           JUNCTION     0.01     0.03     9.63     0  02:17        0.03
  HS02004842           JUNCTION     0.33     0.36     9.63     0  02:17        0.36
  HS02004837           JUNCTION     0.03     0.05     9.63     0  02:17        0.05
  HS02004830           JUNCTION     0.04     0.06     9.53     0  02:18        0.06
  HS02004824           JUNCTION     0.02     0.04     9.44     0  02:21        0.04
  HS02004817           JUNCTION     0.43     0.52     9.37     0  02:19        0.52
  HS02004807           JUNCTION     0.11     0.20     9.37     0  02:19        0.20
  HS02004802           JUNCTION     0.15     0.23     9.36     0  02:19        0.23
  HS02004799           JUNCTION     0.10     0.25     9.46     0  02:17        0.25
  HS02004792           JUNCTION     0.02     0.10     9.62     0  02:16        0.10
  HS02004788           JUNCTION     0.02     0.07     9.97     0  02:17        0.07
  HS02004785           JUNCTION     0.03     0.13    10.03     0  02:16        0.13
  HS02004777           JUNCTION     0.13     0.25    10.05     0  02:16        0.25
  HS02004770           JUNCTION     0.10     0.22    10.05     0  02:16        0.22
  HS02004480           JUNCTION     0.06     0.20     9.44     0  02:17        0.20
  HS02004479           JUNCTION     0.10     0.23     9.44     0  02:17        0.23
  HS02004478           JUNCTION     0.05     0.12     9.35     0  02:18        0.12
  YS02001745           JUNCTION     0.08     0.12     7.64     0  04:34        0.12
  YS02001748           JUNCTION     0.31     0.56     7.63     0  04:34        0.54
  YS02001751           JUNCTION     0.49     0.75     7.63     0  04:33        0.75
  YS02001754           JUNCTION     0.74     1.02     7.63     0  04:26        1.02
  YS02001762           JUNCTION     0.94     1.22     7.62     0  04:31        1.22
  YS02001765           JUNCTION     0.89     1.18     7.63     0  04:34        1.17
  YS02001767           JUNCTION     0.85     1.14     7.63     0  04:34        1.13
  YS02001770           JUNCTION     0.85     1.14     7.64     0  04:34        1.13
  YS02001774           JUNCTION     0.92     1.21     7.63     0  04:34        1.21
  YS02001779           JUNCTION     0.67     0.95     7.64     0  04:34        0.95
  YS02001882           JUNCTION     0.28     0.45     7.16     0  02:52        0.45
  YS02001884           JUNCTION     0.37     0.54     7.16     0  02:53        0.54
  YS02001759           JUNCTION     0.97     1.26     7.62     0  04:31        1.26
  YS02001887           JUNCTION     0.45     0.62     7.16     0  02:53        0.62
  YS02001890           JUNCTION     0.48     0.65     7.16     0  02:53        0.65
  YS02001898           JUNCTION     0.25     0.41     7.14     0  02:54        0.41
  YS02001901           JUNCTION     0.37     0.54     7.14     0  02:54        0.54
  YS02001904           JUNCTION     0.35     0.51     7.14     0  02:54        0.51
  YS02001907           JUNCTION     0.68     0.85     7.14     0  02:55        0.85
  YS02001910           JUNCTION     0.46     0.64     7.14     0  02:55        0.64
  YS02001915           JUNCTION     0.27     0.42     7.14     0  02:54        0.42
  YS02001918           JUNCTION     0.07     0.09     7.16     0  03:03        0.09
  YS02001619           JUNCTION     0.45     0.70     7.63     0  04:32        0.70
  YS02001629           JUNCTION     0.80     1.08     7.63     0  04:35        1.08
  YS02001641           JUNCTION     0.90     1.23     7.67     0  04:31        1.21
  YS02001644           JUNCTION     0.91     1.24     7.67     0  04:31        1.22
  YS02001652           JUNCTION     0.75     1.08     7.68     0  04:31        1.04
  YS02001655           JUNCTION     0.52     0.80     7.65     0  04:35        0.79
  YS02001920           JUNCTION     0.17     0.20     7.21     0  03:02        0.20
  YS02001923           JUNCTION     0.06     0.08     7.34     0  03:02        0.08
  YS02001926           JUNCTION     0.14     0.17     7.62     0  03:01        0.17
  YS02001929           JUNCTION     0.06     0.08     7.78     0  03:01        0.08
  YS02001658           JUNCTION     0.26     0.49     7.63     0  04:33        0.49
  YS02001661           JUNCTION     0.15     0.24     7.65     0  04:35        0.24
  YS02001664           JUNCTION     0.07     0.11     8.04     0  02:45        0.11
  YS02001622           JUNCTION     0.47     0.72     7.62     0  04:32        0.72
  YS02001633           JUNCTION     0.89     1.19     7.65     0  04:31        1.17
  YS02001649           JUNCTION     0.95     1.26     7.65     0  04:31        1.24
  YS02001757           JUNCTION     1.07     1.37     7.63     0  04:34        1.36
  YS02001895           JUNCTION     0.24     0.41     7.15     0  02:53        0.41
  YS02001625           JUNCTION     0.75     1.02     7.62     0  04:35        1.02
  YS02163301           JUNCTION     0.83     1.12     7.64     0  04:31        1.11
  YS02163601           JUNCTION     0.94     1.26     7.66     0  04:31        1.24
  YS02164001           JUNCTION     0.88     1.21     7.67     0  04:31        1.18
  YS02001647           JUNCTION     0.74     1.06     7.67     0  04:31        1.04
  YSB1154              JUNCTION     0.24     0.38     9.44     0  02:17        0.38
  YSB6556              JUNCTION     0.13     0.27     9.44     0  02:17        0.27
  YSB1174              JUNCTION     0.19     0.33     9.44     0  02:17        0.33
  YSB1171              JUNCTION     0.39     0.53     9.44     0  02:17        0.53
  YS02006553           JUNCTION     0.68     0.86     7.14     0  02:54        0.86
  YS02006561           JUNCTION     0.14     0.22     6.88     0  02:54        0.22
  YS02006556           JUNCTION     0.65     0.83     7.14     0  02:54        0.83
  YS02006558           JUNCTION     0.70     0.87     7.14     0  02:54        0.87
  YS02001783           JUNCTION     0.23     0.39     6.53     0  02:54        0.39
  YS02001784           JUNCTION     0.27     0.42     6.49     0  02:55        0.42
  YS02001786           JUNCTION     0.23     0.36     6.39     0  02:55        0.36
  YS02001788           JUNCTION     0.16     0.27     6.24     0  02:55        0.27
  YS02001790           JUNCTION     0.20     0.32     5.97     0  02:56        0.32
  YS02001791           JUNCTION     0.13     0.21     5.68     0  02:56        0.21
  YS02001793           JUNCTION     0.08     0.14     4.97     0  02:49        0.14
  WS02004139           JUNCTION     0.60     0.72     5.63     0  03:00        0.72
  WSC                  OUTFALL      0.30     0.37     1.04     0  03:04        0.37
  3                    OUTFALL      0.08     0.20     6.20     0  02:38        0.20
  4                    OUTFALL      0.02     0.09     7.09     0  05:48        0.09
  5                    OUTFALL      0.00     0.00     5.00     0  00:00        0.00
  JK-storage           STORAGE      0.30     3.03     3.83     0  00:30        3.03
  CC-storage           STORAGE      0.32     0.60     7.60     0  04:32        0.60
  XR-storage           STORAGE      6.52     7.72     5.72     0  03:49        7.72
  
  
  *******************
  Node Inflow Summary
  *******************
  
  -------------------------------------------------------------------------------------------------
                                  Maximum  Maximum                  Lateral       Total        Flow
                                  Lateral    Total  Time of Max      Inflow      Inflow     Balance
                                   Inflow   Inflow   Occurrence      Volume      Volume       Error
  Node                 Type           LPS      LPS  days hr:min    10^6 ltr    10^6 ltr     Percent
  -------------------------------------------------------------------------------------------------
  WS02001211           JUNCTION      7.35   381.31     0  03:00       0.207        6.66       0.346
  WS02001212           JUNCTION      0.00   377.13     0  03:01           0        6.63       0.210
  WS02001213           JUNCTION      0.00   375.74     0  03:01           0        6.62       0.231
  WS02003069           JUNCTION      0.32   834.52     0  03:02     0.00902        14.1       0.154
  WS02003072           JUNCTION      0.00   834.04     0  03:03           0        14.1       0.205
  WS02003073           JUNCTION      1.82   835.56     0  03:03      0.0514        14.1       0.226
  WS02003060           JUNCTION     16.53   834.50     0  03:02       0.466        14.1       0.150
  WS02003066           JUNCTION      0.00   491.31     0  02:42           0         7.1       0.057
  WS02003059           JUNCTION      0.00   375.36     0  03:01           0        6.61       0.461
  WS02003067           JUNCTION      0.00   491.30     0  02:42           0        7.11       0.123
  WS02004401           JUNCTION      0.00   493.92     0  02:37           0        7.33       0.266
  WS02004402           JUNCTION      0.00   493.48     0  02:37           0        7.31       0.254
  WS02004403           JUNCTION      0.00   493.32     0  02:38           0        7.29       0.233
  WS02004404           JUNCTION      0.16   493.27     0  02:38     0.00457        7.28       0.178
  WS02004406           JUNCTION      0.00   493.49     0  02:39           0        7.24       0.435
  WS02004409           JUNCTION      0.00   493.07     0  02:39           0        7.21       0.199
  WS02004410           JUNCTION      0.00   492.27     0  02:39           0        7.19       0.229
  WS02004411           JUNCTION      0.00   491.75     0  02:40           0        7.18       0.238
  WS02004412           JUNCTION      0.00   491.49     0  02:41           0        7.16       0.261
  WS02004413           JUNCTION      0.00   491.34     0  02:42           0        7.14       0.394
  WS02004405           JUNCTION      0.04   493.28     0  02:38     0.00107        7.26       0.267
  WS02006109           JUNCTION      1.23   490.45     0  02:34      0.0347        7.41       0.264
  WS02006110           JUNCTION      0.00   490.46     0  02:34           0        7.39       0.254
  WS02006111           JUNCTION      0.00   507.43     0  02:36           0        7.37       0.042
  WS02006112           JUNCTION      9.14   498.75     0  02:36      0.0252        7.39       0.373
  WS02006113           JUNCTION      0.00   490.58     0  02:34           0        7.37       0.114
  WS02006115           JUNCTION      0.00   495.76     0  02:36           0        7.36       0.250
  WS02006116           JUNCTION      0.00   494.56     0  02:37           0        7.34       0.217
  WS02006230           JUNCTION     10.28   394.43     0  05:46        0.29        6.54       0.169
  WS02006231           JUNCTION      0.00   384.31     0  05:43           0        6.25       0.122
  WS02006232           JUNCTION      0.00   384.52     0  05:42           0        6.27       0.224
  WS02006234           JUNCTION      0.00   385.25     0  05:42           0        6.27       0.095
  WS02006235           JUNCTION      0.00   385.37     0  05:42           0        6.32       0.151
  WS02006238           JUNCTION      0.00   343.24     0  04:50           0        4.46       0.145
  WS02006240           JUNCTION      0.00   337.53     0  04:50           0        4.44       0.225
  WS02006242           JUNCTION      0.00   334.63     0  04:50           0        4.44       0.292
  WS02006243           JUNCTION      0.00   330.85     0  04:51           0        4.43       0.029
  WS02006245           JUNCTION      0.00   328.59     0  06:50           0        4.44       0.233
  WS02006247           JUNCTION      0.00   332.75     0  06:50           0        4.45       0.154
  WS02006248           JUNCTION      0.00   336.84     0  06:50           0        4.45       0.084
  WS02006249           JUNCTION      0.00   401.96     0  04:50           0        4.81       0.219
  WS02006239           JUNCTION      0.00   342.02     0  04:50           0        4.45       0.217
  WS02006251           JUNCTION      0.08   401.70     0  04:50     0.00217        4.83       0.180
  WS02006252           JUNCTION      0.00   400.00     0  04:40           0        4.68       0.009
  WS02006253           JUNCTION      1.41    40.03     0  02:17     0.00327        0.16       2.403
  WS02006256           JUNCTION      0.00   600.00     0  02:38           0        4.45       0.051
  WS02004138           JUNCTION      0.00   379.99     0  03:00           0        6.47       0.045
  WS02004407           JUNCTION      0.00   493.16     0  02:39           0        7.21       0.089
  WS02006228           JUNCTION      0.00   489.22     0  02:34           0        7.39       0.185
  WS02006229           JUNCTION      0.00   489.24     0  02:34           0         7.4       0.157
  WS02006280           JUNCTION      0.00   205.87     0  02:18           0       0.877       0.008
  WS02006284           JUNCTION      0.10   205.86     0  02:18      0.0027       0.878       0.121
  WS02006287           JUNCTION      0.00   205.73     0  02:18           0       0.876       0.083
  WSF200               JUNCTION      0.00   491.31     0  02:42           0         7.1       0.054
  HS02004901           JUNCTION     11.34    11.34     0  02:10      0.0304      0.0305       6.107
  HS02004881           JUNCTION      4.57    38.96     0  02:17      0.0133       0.139       0.198
  HS02004876           JUNCTION      7.22    34.72     0  02:18      0.0254       0.127       0.418
  HS02004870           JUNCTION      8.03    27.65     0  02:18      0.0251       0.101       0.105
  HS02004862           JUNCTION      6.56    20.17     0  02:18      0.0307      0.0763       0.221
  HS02004856           JUNCTION      5.95    13.67     0  02:17      0.0189      0.0471       3.153
  HS02004852           JUNCTION      0.00     8.10     0  02:18           0      0.0283       0.179
  HS02004848           JUNCTION     13.02    13.02     0  02:20      0.0597      0.0597       0.073
  HS02004842           JUNCTION      0.00     5.38     0  02:30           0      0.0445      41.305
  HS02004837           JUNCTION     19.19    23.75     0  02:17       0.223       0.254       0.319
  HS02004830           JUNCTION      0.15    23.88     0  02:17     0.00423       0.245       0.506
  HS02004824           JUNCTION     14.60    38.30     0  02:21      0.0782       0.322       0.168
  HS02004817           JUNCTION      0.60    38.89     0  02:21      0.0169       0.338       5.187
  HS02004807           JUNCTION     15.14    52.63     0  02:19      0.0461       0.367       1.163
  HS02004802           JUNCTION      0.00    52.91     0  02:21           0       0.363       1.128
  HS02004799           JUNCTION     11.63   130.55     0  02:16      0.0373       0.454       0.501
  HS02004792           JUNCTION     52.11   119.21     0  02:15       0.163       0.417       0.099
  HS02004788           JUNCTION     17.42    69.42     0  02:16      0.0989       0.254       0.154
  HS02004785           JUNCTION      0.15    52.42     0  02:16     0.00423       0.158       0.307
  HS02004777           JUNCTION      0.03    52.75     0  02:14    0.000846       0.158       3.391
  HS02004770           JUNCTION     44.17    54.12     0  02:12        0.13       0.159       1.991
  HS02004480           JUNCTION      0.00   153.85     0  02:17           0       0.529       0.137
  HS02004479           JUNCTION      0.00    23.83     0  02:18           0      0.0877       0.838
  HS02004478           JUNCTION      0.00   205.72     0  02:18           0       0.877       0.071
  YS02001745           JUNCTION     72.67    72.67     0  03:01       0.793       0.793       0.105
  YS02001748           JUNCTION      0.04    83.52     0  02:57     0.00127       0.795       0.005
  YS02001751           JUNCTION      0.01   155.81     0  03:00     0.00031       0.795       0.817
  YS02001754           JUNCTION      0.26    97.85     0  03:03     0.00733       0.795       1.705
  YS02001762           JUNCTION      0.00   132.86     0  03:01           0       0.892       1.899
  YS02001765           JUNCTION      0.00   122.25     0  03:08           0       0.888       2.004
  YS02001767           JUNCTION      0.54   155.63     0  03:02      0.0151         0.9       2.970
  YS02001770           JUNCTION     93.52   157.80     0  03:03       0.929       0.997       2.270
  YS02001774           JUNCTION      0.00    80.54     0  03:24           0       0.153      14.555
  YS02001779           JUNCTION      0.01    71.72     0  03:24    0.000141      0.0657      14.010
  YS02001882           JUNCTION      0.00     4.11     0  02:08           0     0.00514      47.617
  YS02001884           JUNCTION      0.00    11.69     0  02:08           0      0.0206      30.732
  YS02001759           JUNCTION     91.49   219.53     0  03:01       0.867        1.73       1.109
  YS02001887           JUNCTION    120.75   120.75     0  02:43        1.04        1.05       0.684
  YS02001890           JUNCTION      0.00   120.07     0  02:45           0        1.02       0.768
  YS02001898           JUNCTION      0.00   119.52     0  02:47           0        1.01       0.213
  YS02001901           JUNCTION      0.00   119.39     0  02:49           0        1.01       0.544
  YS02001904           JUNCTION      0.00   118.81     0  02:49           0        1.01       0.506
  YS02001907           JUNCTION      0.00   215.97     0  02:56           0        2.16       1.027
  YS02001910           JUNCTION      0.00    98.77     0  03:01           0        1.16       0.877
  YS02001915           JUNCTION     65.11    98.17     0  03:01       0.679        1.17       0.388
  YS02001918           JUNCTION      0.00    33.35     0  03:02           0       0.489       0.226
  YS02001619           JUNCTION     63.30    63.30     0  02:59        0.67        0.67       0.355
  YS02001629           JUNCTION      0.00   107.80     0  03:03           0       0.641       1.612
  YS02001641           JUNCTION      0.00   157.52     0  03:07           0        1.37       1.216
  YS02001644           JUNCTION     69.03   222.23     0  03:07       0.761         2.1       0.965
  YS02001652           JUNCTION      0.00   115.20     0  02:59           0       0.759       1.725
  YS02001655           JUNCTION      0.15   157.06     0  02:55     0.00434       0.766       0.995
  YS02001920           JUNCTION      2.87    33.37     0  03:02      0.0809       0.491       0.413
  YS02001923           JUNCTION      0.04    30.50     0  03:01     0.00106        0.41       0.072
  YS02001926           JUNCTION      0.05    30.53     0  03:01     0.00147       0.411       0.517
  YS02001929           JUNCTION     30.49    30.49     0  03:01        0.41        0.41       0.070
  YS02001658           JUNCTION      0.00   100.63     0  04:36           0       0.764       0.040
  YS02001661           JUNCTION      0.00    85.50     0  02:45           0        0.76       0.092
  YS02001664           JUNCTION     85.50    85.50     0  02:45       0.758       0.758       0.022
  YS02001622           JUNCTION      0.00    93.18     0  02:58           0       0.668       1.168
  YS02001633           JUNCTION     70.18   151.86     0  03:11       0.784         1.4       1.703
  YS02001649           JUNCTION      0.00   326.90     0  03:03           0         2.8       1.073
  YS02001757           JUNCTION      0.00   545.85     0  03:03           0        5.22       1.620
  YS02001895           JUNCTION      0.00   119.56     0  02:45           0        1.02       0.365
  YS02001625           JUNCTION      0.00    94.27     0  03:20           0        0.66       3.458
  YS02163301           JUNCTION      0.00    96.99     0  03:05           0        0.64       2.632
  YS02163601           JUNCTION      0.11   157.66     0  03:03      0.0031        1.38       1.791
  YS02164001           JUNCTION      0.00   163.06     0  03:03           0        1.36       1.108
  YS02001647           JUNCTION      0.00   216.40     0  03:07           0        2.07       0.837
  YSB1154              JUNCTION     12.85    12.85     0  02:15      0.0452      0.0466       3.195
  YSB6556              JUNCTION      0.00    12.79     0  02:17           0      0.0477       2.682
  YSB1174              JUNCTION     12.93    12.93     0  02:09       0.033       0.034       3.923
  YSB1171              JUNCTION      0.00    23.81     0  02:16           0      0.0872       7.814
  YS02006553           JUNCTION      0.00   216.03     0  02:57           0        2.15       0.666
  YS02006561           JUNCTION      0.00   317.02     0  02:54           0        3.04       0.021
  YS02006556           JUNCTION      0.00   216.16     0  03:02           0        2.16       0.481
  YS02006558           JUNCTION    102.09   317.03     0  02:54       0.945        3.07       0.147
  YS02001783           JUNCTION      0.00   317.01     0  02:54           0        3.04       0.050
  YS02001784           JUNCTION      1.06   318.08     0  02:55      0.0299        3.07       0.082
  YS02001786           JUNCTION      0.06   318.11     0  02:55     0.00159        3.07       0.079
  YS02001788           JUNCTION      0.07   318.18     0  02:55       0.002        3.07       0.046
  YS02001790           JUNCTION      0.15   318.33     0  02:56     0.00437        3.07       0.057
  YS02001791           JUNCTION      0.00   318.32     0  02:56           0        3.07       0.030
  YS02001793           JUNCTION      0.00   318.32     0  02:56           0        3.07       0.007
  WS02004139           JUNCTION      0.32   379.56     0  06:50     0.00905        6.48       0.387
  WSC                  OUTFALL       0.00   835.01     0  03:04           0        14.1       0.000
  3                    OUTFALL       0.00   496.33     0  02:38           0        2.55       0.000
  4                    OUTFALL       0.00    90.37     0  05:48           0       0.344       0.000
  5                    OUTFALL       0.00     0.00     0  00:00           0           0       0.000 ltr
  JK-storage           STORAGE       0.00   320.53     0  02:51           0        3.22     -28.050
  CC-storage           STORAGE       0.00   534.99     0  03:04           0        5.13       0.091
  XR-storage           STORAGE     317.88   317.88     0  02:54        6.97        7.57      -0.002
  
  
  **********************
  Node Surcharge Summary
  **********************
  
  Surcharging occurs when water rises above the top of the highest conduit.
  ---------------------------------------------------------------------
                                               Max. Height   Min. Depth
                                   Hours       Above Crown    Below Rim
  Node                 Type      Surcharged         Meters       Meters
  ---------------------------------------------------------------------
  WS02006109           JUNCTION        1.83          0.097        1.723
  WS02006112           JUNCTION        0.11          0.005        1.675
  WS02006232           JUNCTION        1.86          0.044        1.436
  WS02006235           JUNCTION        0.68          0.009        1.281
  WS02006238           JUNCTION        1.23          0.029        1.401
  WS02006242           JUNCTION        0.87          0.022        0.798
  WS02006252           JUNCTION        1.79          0.184        0.916
  WS02006228           JUNCTION        1.60          0.114        2.086
  YS02001762           JUNCTION        3.26          0.224        0.926
  YS02001765           JUNCTION        2.60          0.175        0.925
  YS02001767           JUNCTION        2.18          0.142        0.888
  YS02001770           JUNCTION        1.58          0.112        0.808
  YS02001774           JUNCTION        3.11          0.212        0.838
  YS02001759           JUNCTION        3.49          0.261        0.949
  YS02001641           JUNCTION        2.96          0.233        0.867
  YS02001644           JUNCTION        3.01          0.240        0.680
  YS02001652           JUNCTION        0.03          0.049        1.081
  YS02001633           JUNCTION        2.31          0.173        0.887
  YS02001649           JUNCTION        3.35          0.257        0.793
  YS02001757           JUNCTION        4.44          0.370        0.840
  YS02001625           JUNCTION        0.32          0.020        0.760
  YS02163301           JUNCTION        1.89          0.119        0.911
  YS02163601           JUNCTION        3.31          0.261        0.819
  YS02164001           JUNCTION        2.50          0.209        0.891
  YS02001647           JUNCTION        0.17          0.064        0.836
  
  
  *********************
  Node Flooding Summary
  *********************
  
  Flooding refers to all water that overflows a node, whether it ponds or not.
  --------------------------------------------------------------------------
                                                             Total   Maximum
                                 Maximum   Time of Max       Flood    Ponded
                        Hours       Rate    Occurrence      Volume     Depth
  Node                 Flooded       LPS   days hr:min    10^6 ltr    Meters
  --------------------------------------------------------------------------
  XR-storage              1.36    161.23      0  05:00       0.324     0.000
  
  
  **********************
  Storage Volume Summary
  **********************
  
  --------------------------------------------------------------------------------------------------
                         Average     Avg  Evap Exfil       Maximum     Max    Time of Max    Maximum
                          Volume    Pcnt  Pcnt  Pcnt        Volume    Pcnt     Occurrence    Outflow
  Storage Unit           1000 m3    Full  Loss  Loss       1000 m3    Full    days hr:min        LPS
  --------------------------------------------------------------------------------------------------
  JK-storage               0.015       5     0     0         0.152      52       0  00:30     600.00
  CC-storage               0.889       6     0     0         1.659      11       0  04:32     400.00
  XR-storage               0.782      84     0     0         0.926     100       0  03:49     379.99
  
  
  ***********************
  Outfall Loading Summary
  ***********************
  
  -----------------------------------------------------------
                         Flow       Avg       Max       Total
                         Freq      Flow      Flow      Volume
  Outfall Node           Pcnt       LPS       LPS    10^6 ltr
  -----------------------------------------------------------
  WSC                  100.00    584.38    835.01      14.093
  3                     79.24    161.79    496.33       2.553
  4                     25.03     52.41     90.37       0.344
  5                      0.00      0.00      0.00       0.000
  -----------------------------------------------------------
  System                51.07    798.57   1270.80      16.990
  
  
  ********************
  Link Flow Summary
  ********************
  
  -----------------------------------------------------------------------------
                                 Maximum  Time of Max   Maximum    Max/    Max/
                                  |Flow|   Occurrence   |Veloc|    Full    Full
  Link                 Type          LPS  days hr:min     m/sec    Flow   Depth
  -----------------------------------------------------------------------------
  WS02003066WSF200     CONDUIT    491.31     0  02:42      2.70    0.08    0.22
  WS02006287WS02006284 CONDUIT    205.76     0  02:18      1.62    0.10    0.22
  WS02006284WS02006280 CONDUIT    205.87     0  02:18      1.86    0.09    0.20
  WS02006280WS02006229 CONDUIT    205.87     0  02:18      3.00    0.04    0.14
  WS02006229WS02006228 CONDUIT    489.22     0  02:34      0.97    1.62    1.00
  WS02006256WS02006235 CONDUIT    152.61     0  02:13      2.19    1.62    1.00
  WS02006253WS02006251 CONDUIT     40.14     0  02:18      0.49    0.12    0.89
  WS02006252WS02006251 CONDUIT    400.09     0  04:40      3.18    1.47    1.00
  WS02006251WS02006249 CONDUIT    401.96     0  04:50      1.15    1.16    0.86
  WS02006249WS02006248 CONDUIT    336.84     0  06:50      1.09    1.85    0.82
  WS02006248WS02006247 CONDUIT    332.75     0  06:50      1.05    0.72    0.86
  WS02006247WS02006245 CONDUIT    328.59     0  06:50      1.00    2.61    0.89
  WS02006245WS02006243 CONDUIT    330.85     0  04:51      1.03    0.98    0.90
  WS02006243WS02006242 CONDUIT    334.63     0  04:50      0.90    0.71    0.96
  WS02006242WS02006240 CONDUIT    337.53     0  04:50      0.90    1.34    0.98
  WS02006240WS02006239 CONDUIT    342.02     0  04:50      0.94    1.08    0.98
  WS02006239WS02006238 CONDUIT    343.24     0  04:50      0.91    1.10    1.00
  WS02006238WS02006235 CONDUIT    343.43     0  04:50      0.90    0.77    1.00
  WS02006235WS02006234 CONDUIT    385.25     0  05:42      1.01    4.06    0.97
  WS02006234WS02006232 CONDUIT    384.52     0  05:42      1.00    0.78    0.99
  WS02006232WS02006231 CONDUIT    384.31     0  05:43      1.05    0.81    0.93
  WS02006231WS02006230 CONDUIT    384.15     0  05:46      1.33    5.83    0.84
  WS02006230WS02006229 CONDUIT    394.43     0  05:47      1.02    8.78    1.00
  WS02006228WS02006109 CONDUIT    489.22     0  02:34      0.97    2.14    1.00
  WS02006116WS02004401 CONDUIT    493.92     0  02:37      0.76    0.68    0.80
  WS02006115WS02006116 CONDUIT    494.56     0  02:37      0.94    0.63    0.72
  WS02006113WS02006111 CONDUIT    507.43     0  02:36      2.38    0.61    0.44
  WS02006112WS02006115 CONDUIT    495.76     0  02:36      0.70    0.29    0.85
  WS02006111WS02006112 CONDUIT    494.18     0  02:36      1.39    0.23    0.66
  WS02006110WS02006113 CONDUIT    490.58     0  02:34      1.18    0.45    0.77
  WS02006109WS02006110 CONDUIT    490.46     0  02:34      0.98    0.94    0.99
  WS02004411WS02004412 CONDUIT    491.49     0  02:41      0.88    0.70    0.67
  WS02004401WS02004402 CONDUIT    493.48     0  02:37      0.78    0.59    0.83
  WS02004413WS02003067 CONDUIT    491.30     0  02:42      1.06    0.21    0.57
  WS02004412WS02004413 CONDUIT    491.34     0  02:42      0.78    0.33    0.75
  WS02004410WS02004411 CONDUIT    491.75     0  02:40      0.90    0.67    0.66
  WS02004409WS02004410 CONDUIT    492.27     0  02:39      0.93    0.64    0.64
  WS02004407WS02004409 CONDUIT    493.07     0  02:39      1.42    0.17    0.46
  WS02004406WS02004407 CONDUIT    493.16     0  02:39      0.99    0.22    0.61
  WS02004405WS02004406 CONDUIT    493.49     0  02:39      0.71    0.97    0.93
  WS02004404WS02004405 CONDUIT    493.24     0  02:38      0.91    4.83    0.93
  WS02004403WS02004404 CONDUIT    493.11     0  02:38      0.84    0.36    0.90
  WS02004402WS02004403 CONDUIT    493.32     0  02:38      0.86    0.71    0.85
  WS02004139WS02001211 CONDUIT    373.97     0  03:00      0.69    0.47    0.58
  WS02004138WS02004139 CONDUIT    379.24     0  06:50      2.95    0.08    0.43
  WS02003067WS02003066 CONDUIT    491.31     0  02:42      1.15    0.16    0.40
  WS02001213WS02003059 CONDUIT    375.36     0  03:01      0.65    0.62    0.75
  WS02001212WS02001213 CONDUIT    375.74     0  03:01      1.22    0.58    0.45
  WS02001211WS02001212 CONDUIT    377.13     0  03:01      0.75    0.29    0.63
  WS02003072WS02003073 CONDUIT    833.74     0  03:03      1.66    1.80    0.46
  WS02003069WS02003072 CONDUIT    834.04     0  03:03      1.56    0.40    0.48
  WS02003060WS02003069 CONDUIT    834.20     0  03:02      1.81    0.33    0.43
  WS02003059WS02003060 CONDUIT    375.27     0  03:02      0.82    0.25    0.63
  HS02004901HS02004770 CONDUIT     10.34     0  02:15      0.05    0.04    0.32
  HS02004876HS02004881 CONDUIT     34.79     0  02:18      0.56    0.37    0.09
  HS02004870HS02004876 CONDUIT     27.63     0  02:18      0.39    0.02    0.10
  HS02004842HS02004848 CONDUIT      5.38     0  02:30      0.03    0.00    0.27
  HS02004837HS02004842 CONDUIT      5.56     0  02:31      0.42    0.00    0.29
  HS02004830HS02004837 CONDUIT     23.73     0  02:17      0.44    0.02    0.08
  HS02004824HS02004830 CONDUIT     23.88     0  02:18      0.48    0.03    0.07
  HS02004817HS02004824 CONDUIT     38.29     0  02:21      0.17    0.02    0.40
  HS02004770HS02004777 CONDUIT     52.72     0  02:14      0.23    0.10    0.33
  HS02004799HS02004480 CONDUIT    130.35     0  02:16      0.59    0.16    0.31
  HS02004792HS02004799 CONDUIT    119.14     0  02:16      0.68    0.07    0.25
  HS02004788HS02004792 CONDUIT     69.36     0  02:17      0.83    0.05    0.12
  HS02004785HS02004788 CONDUIT     52.33     0  02:17      0.51    0.39    0.15
  HS02004777HS02004785 CONDUIT     52.27     0  02:16      0.27    0.06    0.27
  HS02004480HS02004478 CONDUIT    153.82     0  02:17      0.96    0.65    0.23
  HS02004479HS02004480 CONDUIT     24.05     0  02:20      0.16    0.02    0.31
  HS02004862HS02004870 CONDUIT     20.13     0  02:19      0.47    0.02    0.06
  HS02004848HS02004852 CONDUIT      8.10     0  02:18      0.31    0.01    0.04
  HS02004856HS02004862 CONDUIT     13.63     0  02:18      0.34    0.01    0.06
  HS02004852HS02004856 CONDUIT      8.06     0  02:19      0.12    0.01    0.09
  HS02004802HS02004478 CONDUIT     53.30     0  02:22      0.30    0.05    0.26
  HS02004478WS02006287 CONDUIT    205.73     0  02:18      1.32    0.06    0.17
  HS02004817HS02004807 CONDUIT     39.45     0  02:23      0.11    0.02    0.51
  HS02004807HS02004802 CONDUIT     52.91     0  02:21      0.25    0.10    0.30
  YS02001759YS02001757 CONDUIT    221.77     0  03:00      0.28    0.16    1.00
  YS02001762YS02001759 CONDUIT    130.01     0  03:01      0.17    0.15    1.00
  YS02001765YS02001762 CONDUIT    132.86     0  03:01      0.23    0.12    1.00
  YS02001770YS02001767 CONDUIT    155.09     0  03:02      0.34    0.61    1.00
  YS02001774YS02001770 CONDUIT     80.54     0  03:24      0.14    0.05    1.00
  YS02001779YS02001774 CONDUIT     71.72     0  03:24      0.10    0.04    0.98
  YS02001649YS02001757 CONDUIT    330.11     0  03:03      0.42    0.20    1.00
  YS02001767YS02001765 CONDUIT    122.25     0  03:08      0.26    0.15    1.00
  YS02006561YS02001783 CONDUIT    317.01     0  02:54      1.79    0.16    0.38
  YS02001783YS02001784 CONDUIT    317.02     0  02:55      1.24    0.44    0.51
  YS02001784YS02001785 CONDUIT    318.06     0  02:55      1.32    0.74    0.48
  YS02001788YS02001790 CONDUIT    318.17     0  02:56      1.88    0.23    0.37
  YS02001790YS02001791 CONDUIT    318.32     0  02:56      2.17    0.35    0.34
  YS02001791YS02001793 CONDUIT    318.32     0  02:56      4.41    0.14    0.22
  YS02001910YS02001907 CONDUIT     98.88     0  03:01      0.50    0.06    0.74
  YS02001786YS02001788 CONDUIT    318.11     0  02:55      1.75    0.61    0.39
  YS02001915YS02001910 CONDUIT     98.77     0  03:01      0.44    0.05    0.53
  YS02001918YS02001915 CONDUIT     33.33     0  03:03      0.44    0.02    0.26
  YS02001923YS02001920 CONDUIT     30.50     0  03:02      0.45    0.01    0.14
  YS02001926YS02001923 CONDUIT     30.47     0  03:01      0.49    0.04    0.13
  YS02001929YS02001926 CONDUIT     30.48     0  03:01      0.52    0.01    0.13
  YS02001920YS02001918 CONDUIT     33.35     0  03:02      0.46    0.03    0.15
  YS02001629YS02163301 CONDUIT     96.99     0  03:05      0.13    0.12    1.00
  YS02001619YS02001622 CONDUIT     93.18     0  02:58      0.66    0.14    0.71
  YS02001622YS02001625 CONDUIT     94.27     0  03:20      0.25    0.05    0.86
  YS02001625YS02001629 CONDUIT    107.80     0  03:03      0.25    0.05    0.85
  YS02163301YS02001633 CONDUIT     86.69     0  03:11      0.11    0.08    1.00
  YS02163601YS02164001 CONDUIT    163.06     0  03:03      0.21    0.14    1.00
  YS02164001YS02001641 CONDUIT    157.52     0  03:07      0.20    0.22    1.00
  YS02001641YS02001644 CONDUIT    156.30     0  03:07      0.20    0.51    1.00
  YS02001647YS02001649 CONDUIT    239.26     0  02:59      0.32    0.13    1.00
  YS02006553YS02006556 CONDUIT    216.16     0  03:02      0.31    0.18    0.82
  YS02006556YS02006558 CONDUIT    216.38     0  03:02      0.31    0.17    0.85
  YSB6556YSB1171       CONDUIT     13.00     0  02:19      0.06    0.01    0.57
  YS02001907YS02006553 CONDUIT    216.03     0  02:57      0.26    0.25    0.93
  YS02006558YS02006561 CONDUIT    317.02     0  02:54      2.29    0.70    0.49
  YS02001633YS02163601 CONDUIT    157.55     0  03:03      0.20    0.17    1.00
  YS02001644YS02001647 CONDUIT    216.40     0  03:07      0.29    0.13    1.00
  YS02001745YS02001748 CONDUIT     72.66     0  03:01      1.40    0.03    0.28
  YS02001748YS02001751 CONDUIT    155.80     0  03:00      1.09    0.08    0.64
  YS02001751YS02001754 CONDUIT     97.59     0  03:03      0.97    0.05    0.86
  YS02001754YS02001757 CONDUIT    134.28     0  03:00      0.33    0.05    1.00
  YS02001882YS02001884 CONDUIT      4.11     0  02:08      0.06    0.00    0.46
  YS02001884YS02001887 CONDUIT     11.69     0  02:08      0.06    0.02    0.56
  YS02001890YS02001895 CONDUIT    119.56     0  02:45      0.29    0.06    0.53
  YS02001895YS02001898 CONDUIT    119.52     0  02:47      0.49    0.21    0.39
  YS02001898YS02001901 CONDUIT    119.39     0  02:49      0.33    0.08    0.47
  YS02001901YS02001904 CONDUIT    118.81     0  02:49      0.29    0.18    0.52
  YS02001904YS02001907 CONDUIT    118.99     0  02:51      0.21    0.04    0.68
  YS02001887YS02001890 CONDUIT    120.07     0  02:45      0.24    0.21    0.61
  YS02001652YS02001649 CONDUIT    149.03     0  02:56      0.33    0.07    1.00
  YS02001655YS02001652 CONDUIT    115.20     0  02:59      1.05    0.06    0.90
  YS02001658YS02001655 CONDUIT    156.91     0  02:55      1.26    0.07    0.64
  YS02001661YS02001658 CONDUIT    100.63     0  04:36      1.45    0.04    0.31
  YS02001664YS02001661 CONDUIT     85.50     0  02:45      1.11    0.03    0.16
  YSB1154YSB6556       CONDUIT     12.79     0  02:17      0.19    0.02    0.46
  YSB1174YSB1171       CONDUIT     11.94     0  02:11      0.06    0.02    0.58
  YSB1171HS02004479    CONDUIT     23.83     0  02:18      0.54    0.02    0.45
  HS02004881HS02006253 CONDUIT     38.95     0  02:18      1.66    0.01    0.22
  YS02001793JiankangQianchi CONDUIT    320.53     0  02:51     13.21    0.03    0.55
  YS02001757CaochengTiaoxuchi CONDUIT    534.99     0  03:04      1.14    0.23    0.80
  WSF200WS02003060     CONDUIT    491.37     0  02:42      1.66    0.11    0.32
  1                    CONDUIT    835.01     0  03:04      3.17    0.29    0.37
  2                    CONDUIT     90.37     0  05:48      4.71    0.22    0.32
  3                    CONDUIT    496.33     0  02:38      9.78    0.79    0.68
  4                    CONDUIT      0.00     0  00:00      0.00    0.00    0.00
  CC-Pump-1            PUMP       200.00     0  02:30              1.00
  CC-Pump-2            PUMP       200.00     0  02:50              1.00
  JK-Pump-1            PUMP       300.00     0  00:40              1.00
  JK-Pump-2            PUMP       300.00     0  02:38              1.00
  XR-Pump-1            PUMP        95.00     0  00:00              1.00
  XR-Pump-2            PUMP        95.00     0  01:00              1.00
  XR-Pump-3            PUMP        95.00     0  00:00              1.00
  XR-Pump-4            PUMP        95.00     0  00:30              1.00
  
  
  ***************************
  Flow Classification Summary
  ***************************
  
  -------------------------------------------------------------------------------------
                      Adjusted    ---------- Fraction of Time in Flow Class ---------- 
                       /Actual         Up    Down  Sub   Sup   Up    Down  Norm  Inlet 
  Conduit               Length    Dry  Dry   Dry   Crit  Crit  Crit  Crit  Ltd   Ctrl  
  -------------------------------------------------------------------------------------
  WS02003066WSF200        1.00   0.06  0.00  0.00  0.00  0.94  0.00  0.00  0.75  0.00
  WS02006287WS02006284    1.00   0.04  0.02  0.00  0.70  0.25  0.00  0.00  0.77  0.00
  WS02006284WS02006280    1.00   0.05  0.00  0.00  0.00  0.00  0.00  0.95  0.00  0.00
  WS02006280WS02006229    1.00   0.05  0.00  0.00  0.00  0.00  0.00  0.95  0.00  0.00
  WS02006229WS02006228    1.00   0.00  0.00  0.00  1.00  0.00  0.00  0.00  0.00  0.00
  WS02006256WS02006235    1.00   0.01  0.00  0.00  0.99  0.00  0.00  0.00  0.00  0.00
  WS02006253WS02006251    1.00   0.01  0.03  0.00  0.96  0.00  0.00  0.00  0.00  0.00
  WS02006252WS02006251    1.00   0.09  0.00  0.00  0.00  0.00  0.91  0.00  0.00  0.00
  WS02006251WS02006249    1.00   0.00  0.00  0.00  1.00  0.00  0.00  0.00  0.29  0.00
  WS02006249WS02006248    1.00   0.00  0.00  0.00  0.89  0.00  0.10  0.00  0.00  0.00
  WS02006248WS02006247    1.00   0.00  0.00  0.00  0.99  0.00  0.00  0.01  0.19  0.00
  WS02006247WS02006245    1.00   0.00  0.00  0.00  0.97  0.00  0.00  0.02  0.00  0.00
  WS02006245WS02006243    1.00   0.01  0.00  0.00  0.94  0.00  0.00  0.05  0.01  0.00
  WS02006243WS02006242    1.00   0.01  0.00  0.00  0.99  0.00  0.00  0.01  0.20  0.00
  WS02006242WS02006240    1.00   0.01  0.00  0.00  0.99  0.00  0.00  0.00  0.00  0.00
  WS02006240WS02006239    1.00   0.01  0.00  0.00  0.96  0.00  0.00  0.03  0.01  0.00
  WS02006239WS02006238    1.00   0.01  0.00  0.00  0.99  0.00  0.00  0.00  0.01  0.00
  WS02006238WS02006235    1.00   0.01  0.00  0.00  0.99  0.00  0.00  0.00  0.00  0.00
  WS02006235WS02006234    1.00   0.01  0.00  0.00  0.96  0.00  0.03  0.00  0.00  0.00
  WS02006234WS02006232    1.00   0.01  0.00  0.00  0.99  0.00  0.00  0.00  0.01  0.00
  WS02006232WS02006231    1.00   0.01  0.00  0.00  0.99  0.00  0.00  0.00  0.00  0.00
  WS02006231WS02006230    1.00   0.01  0.00  0.00  0.65  0.00  0.34  0.00  0.00  0.00
  WS02006230WS02006229    1.00   0.00  0.00  0.00  0.99  0.00  0.00  0.01  0.01  0.00
  WS02006228WS02006109    1.00   0.00  0.00  0.00  1.00  0.00  0.00  0.00  0.00  0.00
  WS02006116WS02004401    1.00   0.03  0.00  0.00  0.97  0.00  0.00  0.00  0.00  0.00
  WS02006115WS02006116    1.00   0.03  0.00  0.00  0.96  0.00  0.00  0.01  0.00  0.00
  WS02006113WS02006111    1.00   0.01  0.00  0.00  0.01  0.98  0.00  0.00  0.12  0.00
  WS02006112WS02006115    1.00   0.01  0.02  0.00  0.97  0.00  0.01  0.00  0.00  0.00
  WS02006111WS02006112    1.00   0.01  0.00  0.00  0.97  0.01  0.00  0.01  0.92  0.00
  WS02006110WS02006113    1.00   0.00  0.01  0.00  0.99  0.00  0.00  0.00  0.00  0.00
  WS02006109WS02006110    1.00   0.00  0.00  0.00  1.00  0.00  0.00  0.00  0.00  0.00
  WS02004411WS02004412    1.00   0.04  0.00  0.00  0.96  0.00  0.00  0.00  0.00  0.00
  WS02004401WS02004402    1.00   0.03  0.00  0.00  0.97  0.00  0.00  0.00  0.00  0.00
  WS02004413WS02003067    1.00   0.04  0.01  0.00  0.00  0.00  0.95  0.00  0.00  0.00
  WS02004412WS02004413    1.00   0.04  0.00  0.00  0.96  0.00  0.00  0.00  0.01  0.00
  WS02004410WS02004411    1.00   0.04  0.00  0.00  0.96  0.00  0.00  0.00  0.01  0.00
  WS02004409WS02004410    1.00   0.04  0.00  0.00  0.96  0.00  0.00  0.00  0.03  0.00
  WS02004407WS02004409    1.00   0.04  0.00  0.00  0.96  0.00  0.00  0.00  0.87  0.00
  WS02004406WS02004407    1.00   0.00  0.04  0.00  0.96  0.00  0.00  0.00  0.00  0.00
  WS02004405WS02004406    1.00   0.00  0.00  0.00  1.00  0.00  0.00  0.00  0.04  0.00
  WS02004404WS02004405    1.00   0.00  0.00  0.00  1.00  0.00  0.00  0.00  0.00  0.00
  WS02004403WS02004404    1.00   0.00  0.03  0.00  0.97  0.00  0.00  0.00  0.00  0.00
  WS02004402WS02004403    1.00   0.03  0.00  0.00  0.97  0.00  0.00  0.00  0.00  0.00
  WS02004139WS02001211    1.00   0.00  0.00  0.00  1.00  0.00  0.00  0.00  0.00  0.00
  WS02004138WS02004139    1.00   0.00  0.00  0.00  1.00  0.00  0.00  0.00  1.00  0.00
  WS02003067WS02003066    1.00   0.05  0.00  0.00  0.95  0.00  0.00  0.00  0.00  0.00
  WS02001213WS02003059    1.00   0.00  0.00  0.00  1.00  0.00  0.00  0.00  0.00  0.00
  WS02001212WS02001213    1.00   0.00  0.00  0.00  0.84  0.00  0.15  0.00  0.00  0.00
  WS02001211WS02001212    1.00   0.00  0.00  0.00  1.00  0.00  0.00  0.00  0.00  0.00
  WS02003072WS02003073    1.00   0.00  0.00  0.00  0.00  0.00  0.00  1.00  0.00  0.00
  WS02003069WS02003072    1.00   0.00  0.00  0.00  1.00  0.00  0.00  0.00  0.30  0.00
  WS02003060WS02003069    1.00   0.00  0.00  0.00  1.00  0.00  0.00  0.00  0.14  0.00
  WS02003059WS02003060    1.00   0.00  0.00  0.00  1.00  0.00  0.00  0.00  0.01  0.00
  HS02004901HS02004770    1.00   0.04  0.00  0.00  0.96  0.00  0.00  0.00  0.03  0.00
  HS02004876HS02004881    1.00   0.00  0.00  0.00  1.00  0.00  0.00  0.00  0.00  0.00
  HS02004870HS02004876    1.00   0.00  0.00  0.00  1.00  0.00  0.00  0.00  0.95  0.00
  HS02004842HS02004848    1.00   0.00  0.05  0.00  0.95  0.00  0.00  0.00  0.69  0.00
  HS02004837HS02004842    1.00   0.00  0.00  0.00  1.00  0.00  0.00  0.00  0.11  0.00
  HS02004830HS02004837    1.00   0.00  0.00  0.00  1.00  0.00  0.00  0.00  0.99  0.00
  HS02004824HS02004830    1.00   0.00  0.00  0.00  1.00  0.00  0.00  0.00  0.00  0.00
  HS02004817HS02004824    1.00   0.00  0.00  0.00  1.00  0.00  0.00  0.00  1.00  0.00
  HS02004770HS02004777    1.00   0.00  0.04  0.00  0.96  0.00  0.00  0.00  0.07  0.00
  HS02004799HS02004480    1.00   0.00  0.01  0.00  0.94  0.00  0.05  0.00  0.00  0.00
  HS02004792HS02004799    1.00   0.00  0.00  0.00  1.00  0.00  0.00  0.00  0.98  0.00
  HS02004788HS02004792    1.00   0.00  0.00  0.00  1.00  0.00  0.00  0.00  0.98  0.00
  HS02004785HS02004788    1.00   0.00  0.00  0.00  1.00  0.00  0.00  0.00  0.00  0.00
  HS02004777HS02004785    1.00   0.00  0.00  0.00  1.00  0.00  0.00  0.00  0.21  0.00
  HS02004480HS02004478    1.00   0.05  0.00  0.00  0.72  0.00  0.00  0.23  0.00  0.00
  HS02004479HS02004480    1.00   0.01  0.00  0.00  0.99  0.00  0.00  0.00  0.16  0.00
  HS02004862HS02004870    1.00   0.00  0.00  0.00  1.00  0.00  0.00  0.00  0.05  0.00
  HS02004848HS02004852    1.00   0.05  0.00  0.00  0.95  0.00  0.00  0.00  0.71  0.00
  HS02004856HS02004862    1.00   0.00  0.07  0.00  0.93  0.00  0.00  0.00  0.74  0.00
  HS02004852HS02004856    1.00   0.04  0.01  0.00  0.95  0.00  0.00  0.00  0.83  0.00
  HS02004802HS02004478    1.00   0.05  0.01  0.00  0.95  0.00  0.00  0.00  0.01  0.00
  HS02004478WS02006287    1.00   0.05  0.00  0.00  0.86  0.08  0.00  0.00  0.77  0.00
  HS02004817HS02004807    1.00   0.00  0.05  0.00  0.95  0.00  0.00  0.00  0.00  0.00
  HS02004807HS02004802    1.00   0.05  0.00  0.00  0.95  0.00  0.00  0.00  0.01  0.00
  YS02001759YS02001757    1.00   0.00  0.00  0.00  1.00  0.00  0.00  0.00  0.17  0.00
  YS02001762YS02001759    1.00   0.00  0.00  0.00  1.00  0.00  0.00  0.00  0.05  0.00
  YS02001765YS02001762    1.00   0.00  0.00  0.00  1.00  0.00  0.00  0.00  0.22  0.00
  YS02001770YS02001767    1.00   0.00  0.00  0.00  1.00  0.00  0.00  0.00  0.00  0.00
  YS02001774YS02001770    1.00   0.00  0.05  0.00  0.95  0.00  0.00  0.00  0.06  0.00
  YS02001779YS02001774    1.00   0.00  0.00  0.00  1.00  0.00  0.00  0.00  0.26  0.00
  YS02001649YS02001757    1.00   0.00  0.00  0.00  1.00  0.00  0.00  0.00  0.19  0.00
  YS02001767YS02001765    1.00   0.00  0.00  0.00  1.00  0.00  0.00  0.00  0.01  0.00
  YS02006561YS02001783    1.00   0.07  0.00  0.00  0.00  0.93  0.00  0.00  0.73  0.00
  YS02001783YS02001784    1.00   0.00  0.07  0.00  0.93  0.00  0.00  0.00  0.00  0.00
  YS02001784YS02001785    1.00   0.00  0.00  0.00  1.00  0.00  0.00  0.00  0.25  0.00
  YS02001788YS02001790    1.00   0.00  0.00  0.00  0.07  0.93  0.00  0.00  0.77  0.00
  YS02001790YS02001791    1.00   0.00  0.00  0.00  0.00  1.00  0.00  0.00  0.54  0.00
  YS02001791YS02001793    1.00   0.00  0.00  0.00  0.00  1.00  0.00  0.00  0.00  0.00
  YS02001910YS02001907    1.00   0.00  0.00  0.00  0.99  0.00  0.00  0.00  0.13  0.00
  YS02001786YS02001788    1.00   0.00  0.00  0.00  0.07  0.93  0.00  0.00  0.00  0.00
  YS02001915YS02001910    1.00   0.00  0.00  0.00  1.00  0.00  0.00  0.00  0.24  0.00
  YS02001918YS02001915    1.00   0.00  0.00  0.00  1.00  0.00  0.00  0.00  0.81  0.00
  YS02001923YS02001920    1.00   0.00  0.00  0.00  1.00  0.00  0.00  0.00  1.00  0.00
  YS02001926YS02001923    1.00   0.00  0.01  0.00  0.00  0.00  0.99  0.00  0.00  0.00
  YS02001929YS02001926    1.00   0.00  0.04  0.00  0.96  0.00  0.00  0.00  0.87  0.00
  YS02001920YS02001918    1.00   0.00  0.00  0.00  1.00  0.00  0.00  0.00  0.00  0.00
  YS02001629YS02163301    1.00   0.06  0.00  0.00  0.94  0.00  0.00  0.00  0.00  0.00
  YS02001619YS02001622    1.00   0.04  0.00  0.00  0.96  0.00  0.00  0.00  0.00  0.00
  YS02001622YS02001625    1.00   0.05  0.00  0.00  0.95  0.00  0.00  0.00  0.13  0.00
  YS02001625YS02001629    1.00   0.05  0.03  0.00  0.91  0.00  0.02  0.00  0.00  0.00
  YS02163301YS02001633    1.00   0.00  0.06  0.00  0.94  0.00  0.00  0.00  0.00  0.00
  YS02163601YS02164001    1.00   0.00  0.02  0.00  0.98  0.00  0.00  0.00  0.00  0.00
  YS02164001YS02001641    1.00   0.00  0.02  0.00  0.98  0.00  0.00  0.00  0.07  0.00
  YS02001641YS02001644    1.00   0.00  0.00  0.00  1.00  0.00  0.00  0.00  0.00  0.00
  YS02001647YS02001649    1.00   0.00  0.07  0.00  0.93  0.00  0.00  0.00  0.01  0.00
  YS02006553YS02006556    1.00   0.00  0.00  0.00  1.00  0.00  0.00  0.00  0.03  0.00
  YS02006556YS02006558    1.00   0.00  0.00  0.00  1.00  0.00  0.00  0.00  0.00  0.00
  YSB6556YSB1171          1.00   0.01  0.04  0.00  0.96  0.00  0.00  0.00  0.00  0.00
  YS02001907YS02006553    1.00   0.00  0.00  0.00  1.00  0.00  0.00  0.00  0.00  0.00
  YS02006558YS02006561    1.00   0.07  0.00  0.00  0.00  0.93  0.00  0.00  0.72  0.00
  YS02001633YS02163601    1.00   0.00  0.00  0.00  1.00  0.00  0.00  0.00  0.20  0.00
  YS02001644YS02001647    1.00   0.00  0.07  0.00  0.93  0.00  0.00  0.00  0.00  0.00
  YS02001745YS02001748    1.00   0.00  0.00  0.00  0.74  0.07  0.00  0.20  0.60  0.00
  YS02001748YS02001751    1.00   0.00  0.00  0.00  0.97  0.03  0.00  0.00  0.24  0.00
  YS02001751YS02001754    1.00   0.00  0.00  0.00  0.92  0.00  0.00  0.07  0.02  0.00
  YS02001754YS02001757    1.00   0.00  0.00  0.00  1.00  0.00  0.00  0.00  0.26  0.00
  YS02001882YS02001884    1.00   0.06  0.00  0.00  0.94  0.00  0.00  0.00  0.00  0.00
  YS02001884YS02001887    1.00   0.01  0.03  0.00  0.96  0.00  0.00  0.00  0.00  0.00
  YS02001890YS02001895    1.00   0.00  0.06  0.00  0.94  0.00  0.00  0.00  0.00  0.00
  YS02001895YS02001898    1.00   0.06  0.00  0.00  0.93  0.00  0.01  0.00  0.00  0.00
  YS02001898YS02001901    1.00   0.06  0.00  0.00  0.93  0.00  0.00  0.00  0.02  0.00
  YS02001901YS02001904    1.00   0.06  0.00  0.00  0.94  0.00  0.00  0.00  0.00  0.00
  YS02001904YS02001907    1.00   0.00  0.06  0.00  0.94  0.00  0.00  0.00  0.00  0.00
  YS02001887YS02001890    1.00   0.00  0.00  0.00  0.99  0.00  0.01  0.00  0.00  0.00
  YS02001652YS02001649    1.00   0.00  0.00  0.00  1.00  0.00  0.00  0.00  0.26  0.00
  YS02001655YS02001652    1.00   0.00  0.00  0.00  0.93  0.00  0.00  0.07  0.02  0.00
  YS02001658YS02001655    1.00   0.00  0.06  0.00  0.91  0.03  0.00  0.00  0.13  0.00
  YS02001661YS02001658    1.00   0.06  0.00  0.00  0.80  0.15  0.00  0.00  0.59  0.00
  YS02001664YS02001661    1.00   0.04  0.00  0.00  0.74  0.21  0.00  0.00  0.86  0.00
  YSB1154YSB6556          1.00   0.04  0.00  0.00  0.96  0.00  0.00  0.00  0.02  0.00
  YSB1174YSB1171          1.00   0.01  0.03  0.00  0.96  0.00  0.00  0.00  0.00  0.00
  YSB1171HS02004479       1.00   0.01  0.00  0.00  0.99  0.00  0.00  0.00  0.13  0.00
  HS02004881HS02006253    1.00   0.01  0.00  0.00  0.83  0.01  0.00  0.15  0.63  0.00
  YS02001793JiankangQianchi    1.00   0.00  0.00  0.00  0.20  0.80  0.00  0.00  0.29  0.00
  YS02001757CaochengTiaoxuchi    1.00   0.00  0.09  0.00  0.91  0.00  0.00  0.00  0.00  0.00
  WSF200WS02003060        1.00   0.00  0.06  0.00  0.77  0.18  0.00  0.00  0.20  0.00
  1                       1.00   0.00  0.00  0.00  0.00  1.00  0.00  0.00  0.30  0.00
  2                       1.00   0.75  0.00  0.00  0.00  0.25  0.00  0.00  0.05  0.00
  3                       1.00   0.21  0.00  0.00  0.00  0.79  0.00  0.00  0.09  0.00
  4                       1.00   1.00  0.00  0.00  0.00  0.00  0.00  0.00  0.00  0.00
  
  
  *************************
  Conduit Surcharge Summary
  *************************
  
  ----------------------------------------------------------------------------
                                                           Hours        Hours 
                         --------- Hours Full --------   Above Full   Capacity
  Conduit                Both Ends  Upstream  Dnstream   Normal Flow   Limited
  ----------------------------------------------------------------------------
  WS02006229WS02006228        1.60      2.03      1.60      4.43         1.60
  WS02006256WS02006235        5.73      5.73      7.11      2.93         0.01
  WS02006252WS02006251        1.17      1.17      1.79      1.63         0.01
  WS02006251WS02006249        0.01      0.01      0.01      1.14         0.01
  WS02006249WS02006248        0.01      0.01      0.01      4.78         0.01
  WS02006247WS02006245        0.01      0.01      0.01      4.95         0.01
  WS02006243WS02006242        0.01      0.01      0.87      0.01         0.01
  WS02006242WS02006240        0.01      0.01      1.29      1.80         0.01
  WS02006240WS02006239        0.01      0.01      0.01      0.06         0.01
  WS02006239WS02006238        1.03      1.04      1.23      0.28         0.22
  WS02006238WS02006235        0.90      0.90      1.68      0.01         0.01
  WS02006235WS02006234        0.01      0.01      0.68      5.71         0.01
  WS02006234WS02006232        0.01      0.01      1.86      0.01         0.01
  WS02006232WS02006231        0.01      0.01      1.86      0.01         0.01
  WS02006231WS02006230        0.01      0.01      0.01      5.77         0.01
  WS02006230WS02006229        2.89      4.13      2.89      5.87         2.89
  WS02006228WS02006109        1.83      2.45      1.83      5.21         1.83
  WS02006112WS02006115        0.01      0.01      0.11      0.01         0.01
  WS02006111WS02006112        0.01      0.01      4.76      0.01         0.01
  WS02006110WS02006113        0.01      0.01      2.25      0.01         0.01
  WS02006109WS02006110        0.01      0.01      2.46      0.01         0.01
  WS02004404WS02004405        0.01      0.01      0.01      5.61         0.01
  WS02003072WS02003073        0.01      0.01      0.01      4.98         0.01
  YS02001759YS02001757        3.49      3.49      4.44      0.01         0.01
  YS02001762YS02001759        3.26      3.26      3.49      0.01         0.01
  YS02001765YS02001762        2.60      2.60      3.26      0.01         0.01
  YS02001770YS02001767        2.12      2.13      2.17      0.01         0.06
  YS02001774YS02001770        1.58      1.58      3.11      0.01         0.01
  YS02001779YS02001774        0.01      0.01      3.11      0.01         0.01
  YS02001649YS02001757        3.35      3.35      4.44      0.01         0.01
  YS02001767YS02001765        2.17      2.17      2.60      0.01         0.01
  YS02001629YS02163301        1.32      1.32      1.89      0.01         0.01
  YS02001622YS02001625        0.01      0.01      0.32      0.01         0.01
  YS02001625YS02001629        0.01      0.01      0.32      0.01         0.01
  YS02163301YS02001633        1.89      1.89      2.65      0.01         0.01
  YS02163601YS02164001        2.50      2.50      3.31      0.01         0.01
  YS02164001YS02001641        2.50      2.50      2.96      0.01         0.01
  YS02001641YS02001644        2.94      2.96      3.01      0.01         0.17
  YS02001647YS02001649        0.17      0.17      3.35      0.01         0.01
  YS02001633YS02163601        2.31      2.31      3.31      0.01         0.01
  YS02001644YS02001647        0.17      0.17      3.01      0.01         0.01
  YS02001754YS02001757        0.19      0.19      4.44      0.01         0.01
  YS02001652YS02001649        0.36      0.36      3.35      0.01         0.01
  YS02001655YS02001652        0.01      0.01      0.03      0.01         0.01
  YS02001793JiankangQianchi        0.01      0.01      1.25      0.01         0.01
  YS02001757CaochengTiaoxuchi        0.01      0.01      4.44      0.01         0.01
  
  
  ***************
  Pumping Summary
  ***************
  
  ---------------------------------------------------------------------------------------------------------
                                                  Min       Avg       Max     Total     Power    % Time Off
                        Percent   Number of      Flow      Flow      Flow    Volume     Usage    Pump Curve
  Pump                 Utilized   Start-Ups       LPS       LPS       LPS  10^6 ltr     Kw-hr    Low   High
  ---------------------------------------------------------------------------------------------------------
  CC-Pump-1               59.57           4      0.00    151.57    200.00     2.580      9.16    0.0   43.7
  CC-Pump-2               53.60           5      0.00    136.25    200.00     2.096      7.56    0.0   38.6
  JK-Pump-1               80.83           6      0.00    128.47    300.00     2.373     43.80    0.0    0.0
  JK-Pump-2               68.07           8      0.00    136.55    300.00     2.074     39.54    0.0    0.0
  XR-Pump-1               87.23           6      0.00     67.21     95.00     1.682     15.26    0.0    0.0
  XR-Pump-2               91.46           6      0.00     71.82     95.00     1.767     15.44    0.0    0.0
  XR-Pump-3               74.45           7      0.00     67.78     95.00     1.340     12.64    0.0    0.0
  XR-Pump-4               87.21           9      0.00     67.13     95.00     1.681     14.05    0.0    0.0
  

  Analysis begun on:  Fri Dec 24 19:09:15 2021
  Analysis ended on:  Fri Dec 24 19:09:18 2021
  Total elapsed time: 00:00:03