
  EPA STORM WATER MANAGEMENT MODEL - VERSION 5.1 (Build 5.3.0.dev0)
  --------------------------------------------------------------

  WARNING 04: minimum elevation drop used for Conduit WS02004404WS02004405
  WARNING 03: negative offset ignored for Link YS02001904YS02001907
  
  *********************************************************
  NOTE: The summary statistics displayed in this report are
  based on results found at every computational time step,  
  not just on results from each reporting time step.
  *********************************************************
  
  ****************
  Analysis Options
  ****************
  Flow Units ............... LPS
  Process Models:
    Rainfall/Runoff ........ YES
    RDII ................... NO
    Snowmelt ............... NO
    Groundwater ............ NO
    Flow Routing ........... YES
    Ponding Allowed ........ NO
    Water Quality .......... NO
  Infiltration Method ...... HORTON
  Flow Routing Method ...... DYNWAVE
  Surcharge Method ......... EXTRAN
  Starting Date ............ 08/28/2015 08:00:00
  Ending Date .............. 08/28/2015 15:50:00
  Antecedent Dry Days ...... 8.0
  Report Time Step ......... 00:01:00
  Wet Time Step ............ 00:01:00
  Dry Time Step ............ 00:01:00
  Routing Time Step ........ 5.00 sec
  Variable Time Step ....... YES
  Maximum Trials ........... 8
  Number of Threads ........ 4
  Head Tolerance ........... 0.001500 m
  
  
  **************************        Volume         Depth
  Runoff Quantity Continuity     hectare-m            mm
  **************************     ---------       -------
  Total Precipitation ......         5.151        11.277
  Evaporation Loss .........         0.000         0.000
  Infiltration Loss ........         1.323         2.897
  Surface Runoff ...........         2.817         6.167
  Final Storage ............         1.011         2.215
  Continuity Error (%) .....        -0.015
  
  
  **************************        Volume        Volume
  Flow Routing Continuity        hectare-m      10^6 ltr
  **************************     ---------     ---------
  Dry Weather Inflow .......         0.616         6.165
  Wet Weather Inflow .......         2.816        28.156
  Groundwater Inflow .......         0.000         0.000
  RDII Inflow ..............         0.000         0.000
  External Inflow ..........         0.102         1.024
  External Outflow .........         1.872        18.717
  Flooding Loss ............         1.206        12.057
  Evaporation Loss .........         0.000         0.000
  Exfiltration Loss ........         0.000         0.000
  Initial Stored Volume ....         0.076         0.761
  Final Stored Volume ......         0.636         6.358
  Continuity Error (%) .....        -2.843
  
  
  *************************
  Highest Continuity Errors
  *************************
  Node HS02004842 (17.03%)
  Node JK-storage (-12.48%)
  Node YS02001884 (10.91%)
  Node YS02001774 (4.20%)
  Node YSB1171 (3.39%)
  
  
  ***************************
  Time-Step Critical Elements
  ***************************
  Link 3 (52.00%)
  Link WS02006252WS02006251 (42.39%)
  
  
  ********************************
  Highest Flow Instability Indexes
  ********************************
  Link WS02006113WS02006111 (41)
  Link YS02163301YS02001633 (38)
  Link YS02001629YS02163301 (38)
  Link YS02163601YS02164001 (38)
  Link YS02001619YS02001622 (37)
  
  
  *************************
  Routing Time Step Summary
  *************************
  Minimum Time Step           :     0.50 sec
  Average Time Step           :     0.85 sec
  Maximum Time Step           :     5.00 sec
  Percent in Steady State     :    -0.00
  Average Iterations per Step :     4.47
  Percent Not Converging      :    19.42
  
  
  ***************************
  Subcatchment Runoff Summary
  ***************************
  
  ------------------------------------------------------------------------------------------------------------------------------
                            Total      Total      Total      Total     Imperv       Perv      Total       Total     Peak  Runoff
                           Precip      Runon       Evap      Infil     Runoff     Runoff     Runoff      Runoff   Runoff   Coeff
  Subcatchment                 mm         mm         mm         mm         mm         mm         mm    10^6 ltr      LPS
  ------------------------------------------------------------------------------------------------------------------------------
  sub0                      11.28       0.00       0.00       0.79       9.22       0.00       9.22        0.01     1.44   0.818
  sub1                      11.28       0.00       0.00       1.24       8.78       0.00       8.78        0.06    10.11   0.778
  sub2                      11.28       0.00       0.00       4.17       6.20       0.00       6.20        0.06     9.79   0.549
  sub3                      11.28       0.00       0.00       4.17       6.16       0.00       6.16        0.14    22.44   0.546
  sub4                      11.28       0.00       0.00       1.24       8.63       0.00       8.63        0.18    27.35   0.765
  sub5                      11.28       0.00       0.00       0.79       9.17       0.00       9.17        0.10    18.00   0.813
  sub7                      11.28       0.00       0.00       1.01       9.01       0.00       9.01        0.03     5.34   0.799
  sub8                      11.28       0.00       0.00       1.01       9.00       0.00       9.00        0.06    10.08   0.798
  sub9                      11.28       0.00       0.00       1.01       8.99       0.00       8.99        0.04     7.58   0.798
  sub10                     11.28       0.00       0.00       0.90       9.08       0.00       9.08        0.10    17.43   0.805
  sub11                     11.28       0.00       0.00       0.90       9.10       0.00       9.10        0.11    18.56   0.807
  sub12                     11.28       0.00       0.00       1.47       8.62       0.00       8.62        0.08    13.79   0.765
  sub14                     11.28       0.00       0.00       1.01       8.99       0.00       8.99        0.09    14.98   0.797
  sub15                     11.28       0.00       0.00       3.38       6.91       0.00       6.91        0.12    20.76   0.613
  sub16                     11.28       0.00       0.00       3.72       6.64       0.00       6.64        0.07    12.34   0.589
  sub17                     11.28       0.00       0.00       3.61       6.73       0.00       6.73        0.06    10.18   0.597
  sub22                     11.28       0.00       0.00       4.85       5.64       0.00       5.64        0.36    62.58   0.500
  sub23                     11.28       0.00       0.00       4.17       6.23       0.00       6.23        0.30    52.29   0.553
  sub60                     11.28       0.00       0.00       1.35       7.08       0.00       7.08        2.14   214.31   0.627
  sub61                     11.28       0.00       0.00       1.92       7.22       0.00       7.22        2.23   246.69   0.640
  sub62                     11.28       0.00       0.00       0.90       7.84       0.00       7.84        2.41   259.66   0.695
  sub63                     11.28       0.00       0.00       3.27       6.33       0.00       6.33        1.92   219.77   0.561
  sub64                     11.28       0.00       0.00       1.69       6.79       0.00       6.79        2.06   204.52   0.602
  sub65                     11.28       0.00       0.00       1.47       6.90       0.00       6.90        2.12   208.50   0.612
  sub66                     11.28       0.00       0.00       3.27       5.83       0.00       5.83        1.79   183.42   0.517
  sub67                     11.28       0.00       0.00       0.90       8.30       0.00       8.30        2.56   301.39   0.736
  sub68                     11.28       0.00       0.00       1.58       7.60       0.00       7.60        2.34   264.96   0.674
  sub69                     11.28       0.00       0.00       1.69       7.90       0.00       7.90        1.85   237.25   0.701
  sub70                     11.28       8.07       0.00       6.54      10.49       0.03      10.52        2.41   252.63   0.544
  sub71                     11.28       0.00       0.00       0.90       7.63       0.00       7.63        1.80   186.96   0.676
  sub72                     11.28       0.00       0.00       0.79       6.02       0.00       6.02        1.23   100.40   0.534
  sub73                     11.28      10.24       0.00       7.30      11.40       0.02      11.42        2.68   238.40   0.531
  sub74                     11.28       0.00       0.00       8.46       2.36       0.00       2.36        0.94   126.51   0.209
  
  
  ******************
  Node Depth Summary
  ******************
  
  ---------------------------------------------------------------------------------
                                 Average  Maximum  Maximum  Time of Max    Reported
                                   Depth    Depth      HGL   Occurrence   Max Depth
  Node                 Type       Meters   Meters   Meters  days hr:min      Meters
  ---------------------------------------------------------------------------------
  WS02001211           JUNCTION     0.64     0.73     5.57     0  02:10        0.73
  WS02001212           JUNCTION     0.37     0.46     5.52     0  02:10        0.46
  WS02001213           JUNCTION     0.60     0.72     5.48     0  02:10        0.72
  WS02003069           JUNCTION     0.43     0.57     5.15     0  02:12        0.57
  WS02003072           JUNCTION     0.50     0.63     5.00     0  02:12        0.63
  WS02003073           JUNCTION     0.30     0.38     4.45     0  02:13        0.38
  WS02003060           JUNCTION     0.38     0.50     5.43     0  02:11        0.50
  WS02003066           JUNCTION     0.23     0.31     5.87     0  02:15        0.31
  WS02003059           JUNCTION     0.66     0.78     5.47     0  02:11        0.78
  WS02003067           JUNCTION     0.57     0.72     6.04     0  02:15        0.72
  WS02004401           JUNCTION     0.68     0.90     6.90     0  02:11        0.90
  WS02004402           JUNCTION     0.71     0.92     6.88     0  02:13        0.92
  WS02004403           JUNCTION     0.73     0.93     6.86     0  02:13        0.93
  WS02004404           JUNCTION     0.81     1.00     6.85     0  02:13        1.00
  WS02004406           JUNCTION     0.81     0.99     6.82     0  02:13        0.99
  WS02004409           JUNCTION     0.50     0.71     6.48     0  02:14        0.71
  WS02004410           JUNCTION     0.52     0.72     6.44     0  02:14        0.72
  WS02004411           JUNCTION     0.53     0.72     6.40     0  02:14        0.72
  WS02004412           JUNCTION     0.54     0.73     6.37     0  02:14        0.73
  WS02004413           JUNCTION     0.70     0.88     6.35     0  02:15        0.88
  WS02004405           JUNCTION     0.80     0.99     6.84     0  02:13        0.99
  WS02006109           JUNCTION     0.76     1.02     7.64     0  02:07        1.02
  WS02006110           JUNCTION     0.75     0.95     7.54     0  02:10        0.95
  WS02006111           JUNCTION     0.22     0.30     7.01     0  02:09        0.30
  WS02006112           JUNCTION     0.85     1.17     7.05     0  02:16        1.14
  WS02006113           JUNCTION     0.34     0.48     7.37     0  02:09        0.48
  WS02006115           JUNCTION     0.57     0.80     6.94     0  02:12        0.80
  WS02006116           JUNCTION     0.65     0.88     6.92     0  02:10        0.88
  WS02006230           JUNCTION     0.73     1.07     7.81     0  02:10        1.07
  WS02006231           JUNCTION     0.49     0.73     7.85     0  02:10        0.73
  WS02006232           JUNCTION     0.62     0.85     7.89     0  02:10        0.85
  WS02006234           JUNCTION     0.53     0.78     7.93     0  02:10        0.78
  WS02006235           JUNCTION     0.56     0.80     7.96     0  02:10        0.80
  WS02006238           JUNCTION     0.59     0.82     7.97     0  02:10        0.82
  WS02006240           JUNCTION     0.47     0.72     8.02     0  02:10        0.72
  WS02006242           JUNCTION     0.51     0.78     8.05     0  02:10        0.78
  WS02006243           JUNCTION     0.38     0.65     8.07     0  02:10        0.65
  WS02006245           JUNCTION     0.35     0.61     8.09     0  02:10        0.61
  WS02006247           JUNCTION     0.36     0.61     8.11     0  02:10        0.61
  WS02006248           JUNCTION     0.31     0.54     8.13     0  02:11        0.54
  WS02006249           JUNCTION     0.34     0.55     8.15     0  02:10        0.55
  WS02006239           JUNCTION     0.53     0.78     7.99     0  02:10        0.78
  WS02006251           JUNCTION     0.32     0.52     8.19     0  02:09        0.52
  WS02006252           JUNCTION     0.26     0.35     8.59     0  01:42        0.35
  WS02006253           JUNCTION     0.35     0.55     8.19     0  02:09        0.55
  WS02006256           JUNCTION     1.08     2.35     9.28     0  00:00        1.21
  WS02004138           JUNCTION     0.14     0.17     7.42     0  00:00        0.17
  WS02004407           JUNCTION     0.22     0.31     6.62     0  02:13        0.31
  WS02006228           JUNCTION     0.76     1.08     7.73     0  02:07        1.07
  WS02006229           JUNCTION     0.74     1.07     7.77     0  02:09        1.07
  WS02006280           JUNCTION     0.07     0.16     8.44     0  02:09        0.16
  WS02006284           JUNCTION     0.37     0.51     8.91     0  02:09        0.51
  WS02006287           JUNCTION     0.11     0.24     9.20     0  02:09        0.24
  WSF200               JUNCTION     0.22     0.33     5.56     0  02:15        0.33
  HS02004901           JUNCTION     0.13     0.25    10.07     0  02:07        0.25
  HS02004881           JUNCTION     0.01     0.03     9.06     0  02:08        0.03
  HS02004876           JUNCTION     0.05     0.11     9.14     0  02:05        0.11
  HS02004870           JUNCTION     0.02     0.05     9.34     0  02:09        0.05
  HS02004862           JUNCTION     0.02     0.06     9.44     0  02:09        0.06
  HS02004856           JUNCTION     0.08     0.11     9.54     0  02:09        0.11
  HS02004852           JUNCTION     0.01     0.04     9.55     0  02:09        0.04
  HS02004848           JUNCTION     0.01     0.04     9.64     0  02:09        0.04
  HS02004842           JUNCTION     0.33     0.37     9.64     0  02:09        0.37
  HS02004837           JUNCTION     0.03     0.06     9.64     0  02:09        0.06
  HS02004830           JUNCTION     0.04     0.07     9.54     0  02:09        0.07
  HS02004824           JUNCTION     0.02     0.05     9.45     0  02:10        0.05
  HS02004817           JUNCTION     0.45     0.56     9.40     0  02:09        0.56
  HS02004807           JUNCTION     0.13     0.23     9.40     0  02:09        0.23
  HS02004802           JUNCTION     0.17     0.26     9.39     0  02:09        0.26
  HS02004799           JUNCTION     0.13     0.28     9.49     0  02:07        0.28
  HS02004792           JUNCTION     0.04     0.11     9.63     0  02:07        0.11
  HS02004788           JUNCTION     0.03     0.08     9.98     0  02:08        0.08
  HS02004785           JUNCTION     0.05     0.15    10.05     0  02:08        0.15
  HS02004777           JUNCTION     0.15     0.27    10.06     0  02:07        0.27
  HS02004770           JUNCTION     0.12     0.24    10.07     0  02:07        0.24
  HS02004480           JUNCTION     0.09     0.22     9.46     0  02:07        0.22
  HS02004479           JUNCTION     0.13     0.26     9.46     0  02:08        0.26
  HS02004478           JUNCTION     0.07     0.15     9.38     0  02:08        0.15
  YS02001745           JUNCTION     0.69     0.87     8.39     0  03:10        0.87
  YS02001748           JUNCTION     1.08     2.27     9.35     0  02:26        1.31
  YS02001751           JUNCTION     1.27     2.16     9.04     0  02:26        1.52
  YS02001754           JUNCTION     1.52     2.08     8.69     0  02:26        1.80
  YS02001762           JUNCTION     1.73     2.03     8.43     0  02:56        2.02
  YS02001765           JUNCTION     1.68     1.98     8.43     0  02:56        1.97
  YS02001767           JUNCTION     1.64     1.93     8.42     0  03:06        1.92
  YS02001770           JUNCTION     1.64     1.91     8.40     0  03:01        1.90
  YS02001774           JUNCTION     1.71     1.97     8.39     0  03:11        1.96
  YS02001779           JUNCTION     1.45     1.68     8.37     0  02:26        1.68
  YS02001882           JUNCTION     0.47     1.18     7.90     0  02:58        1.18
  YS02001884           JUNCTION     0.57     1.28     7.90     0  02:58        1.28
  YS02001759           JUNCTION     1.76     2.07     8.43     0  02:56        2.06
  YS02001887           JUNCTION     0.65     1.37     7.91     0  02:58        1.36
  YS02001890           JUNCTION     0.68     1.40     7.90     0  02:57        1.38
  YS02001898           JUNCTION     0.44     1.15     7.88     0  02:57        1.14
  YS02001901           JUNCTION     0.56     1.28     7.88     0  02:56        1.27
  YS02001904           JUNCTION     0.54     1.24     7.87     0  02:58        1.24
  YS02001907           JUNCTION     0.87     1.59     7.87     0  02:56        1.58
  YS02001910           JUNCTION     0.66     1.38     7.88     0  02:58        1.37
  YS02001915           JUNCTION     0.46     1.16     7.88     0  02:57        1.16
  YS02001918           JUNCTION     0.21     0.81     7.88     0  02:58        0.81
  YS02001619           JUNCTION     1.24     1.58     8.50     0  02:23        1.47
  YS02001629           JUNCTION     1.59     1.85     8.40     0  02:23        1.84
  YS02001641           JUNCTION     1.69     1.97     8.40     0  02:29        1.93
  YS02001644           JUNCTION     1.70     1.92     8.35     0  02:29        1.92
  YS02001652           JUNCTION     1.54     2.15     8.75     0  02:57        1.91
  YS02001655           JUNCTION     1.30     2.17     9.02     0  02:47        1.73
  YS02001920           JUNCTION     0.30     0.88     7.89     0  02:58        0.88
  YS02001923           JUNCTION     0.15     0.62     7.88     0  02:58        0.62
  YS02001926           JUNCTION     0.21     0.44     7.88     0  02:58        0.44
  YS02001929           JUNCTION     0.10     0.17     7.87     0  02:57        0.17
  YS02001658           JUNCTION     1.03     2.20     9.34     0  02:47        1.61
  YS02001661           JUNCTION     0.80     2.31     9.72     0  02:47        1.75
  YS02001664           JUNCTION     0.35     0.57     8.49     0  02:42        0.56
  YS02001622           JUNCTION     1.26     1.56     8.47     0  02:27        1.49
  YS02001633           JUNCTION     1.68     1.97     8.42     0  02:29        1.93
  YS02001649           JUNCTION     1.73     2.05     8.44     0  02:40        2.05
  YS02001757           JUNCTION     1.86     2.17     8.43     0  03:17        2.16
  YS02001895           JUNCTION     0.44     1.14     7.89     0  02:57        1.14
  YS02001625           JUNCTION     1.54     1.78     8.38     0  02:23        1.78
  YS02163301           JUNCTION     1.62     1.93     8.44     0  02:27        1.87
  YS02163601           JUNCTION     1.73     2.03     8.43     0  02:29        1.98
  YS02164001           JUNCTION     1.67     1.97     8.43     0  02:29        1.91
  YS02001647           JUNCTION     1.52     1.81     8.42     0  02:29        1.79
  YSB1154              JUNCTION     0.27     0.41     9.47     0  02:08        0.41
  YSB6556              JUNCTION     0.16     0.30     9.47     0  02:07        0.30
  YSB1174              JUNCTION     0.22     0.36     9.47     0  02:08        0.36
  YSB1171              JUNCTION     0.42     0.56     9.47     0  02:08        0.56
  YS02006553           JUNCTION     0.87     1.58     7.86     0  02:58        1.57
  YS02006561           JUNCTION     0.27     0.80     7.46     0  02:57        0.80
  YS02006556           JUNCTION     0.84     1.53     7.84     0  02:59        1.53
  YS02006558           JUNCTION     0.89     1.57     7.84     0  02:57        1.56
  YS02001783           JUNCTION     0.51     2.02     8.16     0  02:18        1.22
  YS02001784           JUNCTION     0.54     2.13     8.20     0  02:18        1.20
  YS02001786           JUNCTION     0.50     1.96     7.99     0  02:18        1.09
  YS02001788           JUNCTION     0.45     1.89     7.86     0  02:18        1.00
  YS02001790           JUNCTION     0.59     1.96     7.60     0  02:17        1.21
  YS02001791           JUNCTION     0.60     1.65     7.12     0  02:18        1.24
  YS02001793           JUNCTION     0.87     2.47     7.30     0  02:15        1.79
  WS02004139           JUNCTION     0.58     0.67     5.58     0  02:10        0.67
  WSC                  OUTFALL      0.30     0.38     1.05     0  02:13        0.38
  3                    OUTFALL      0.11     0.23     6.23     0  00:00        0.20
  4                    OUTFALL      0.01     0.05     7.05     0  02:10        0.05
  5                    OUTFALL      0.00     0.00     5.00     0  00:00        0.00
  JK-storage           STORAGE      3.15     5.80     6.60     0  02:18        5.80
  CC-storage           STORAGE      1.08     1.37     8.37     0  03:10        1.37
  XR-storage           STORAGE      6.68     7.72     5.72     0  02:40        7.72
  
  
  *******************
  Node Inflow Summary
  *******************
  
  -------------------------------------------------------------------------------------------------
                                  Maximum  Maximum                  Lateral       Total        Flow
                                  Lateral    Total  Time of Max      Inflow      Inflow     Balance
                                   Inflow   Inflow   Occurrence      Volume      Volume       Error
  Node                 Type           LPS      LPS  days hr:min    10^6 ltr    10^6 ltr     Percent
  -------------------------------------------------------------------------------------------------
  WS02001211           JUNCTION      7.35   292.70     0  04:32       0.207        6.48       0.448
  WS02001212           JUNCTION      0.00   292.73     0  04:32           0        6.45       0.257
  WS02001213           JUNCTION      0.00   292.76     0  04:32           0        6.43       0.292
  WS02003069           JUNCTION      0.32   900.24     0  02:12     0.00902        14.6       0.143
  WS02003072           JUNCTION      0.00   900.16     0  02:12           0        14.5       0.189
  WS02003073           JUNCTION      1.82   901.94     0  02:12      0.0514        14.6       0.201
  WS02003060           JUNCTION     16.53   900.06     0  02:11       0.466        14.6       0.137
  WS02003066           JUNCTION      0.00   592.91     0  02:15           0        7.72       0.041
  WS02003059           JUNCTION      0.00   292.87     0  01:43           0        6.42       0.474
  WS02003067           JUNCTION      0.00   592.85     0  02:15           0        7.73       0.091
  WS02004401           JUNCTION      0.00   595.28     0  02:12           0        7.91       0.209
  WS02004402           JUNCTION      0.00   595.61     0  02:13           0        7.89       0.203
  WS02004403           JUNCTION      0.00   594.32     0  02:13           0        7.88       0.188
  WS02004404           JUNCTION      0.16   594.71     0  02:13     0.00457        7.87       0.146
  WS02004406           JUNCTION      0.00   594.67     0  02:13           0        7.84       0.358
  WS02004409           JUNCTION      0.00   593.77     0  02:13           0         7.8       0.131
  WS02004410           JUNCTION      0.00   593.50     0  02:14           0        7.79       0.157
  WS02004411           JUNCTION      0.00   593.23     0  02:14           0        7.78       0.167
  WS02004412           JUNCTION      0.00   593.19     0  02:14           0        7.77       0.191
  WS02004413           JUNCTION      0.00   593.00     0  02:15           0        7.75       0.300
  WS02004405           JUNCTION      0.04   594.87     0  02:13     0.00107        7.86       0.223
  WS02006109           JUNCTION      1.23   583.58     0  02:10      0.0347        7.95       0.239
  WS02006110           JUNCTION      0.00   583.56     0  02:10           0        7.93       0.194
  WS02006111           JUNCTION      0.00   611.25     0  02:09           0         7.9       0.035
  WS02006112           JUNCTION     10.18   601.56     0  02:09      0.0577        7.96       0.290
  WS02006113           JUNCTION      0.00   584.35     0  02:10           0        7.91       0.079
  WS02006115           JUNCTION      0.00   608.43     0  02:04           0        7.94       0.178
  WS02006116           JUNCTION      0.00   596.90     0  02:12           0        7.92       0.179
  WS02006230           JUNCTION     10.28   343.31     0  03:09        0.29        6.19       0.206
  WS02006231           JUNCTION      0.00   331.26     0  03:10           0        5.91       0.061
  WS02006232           JUNCTION      0.00   331.16     0  03:10           0        5.92       0.212
  WS02006234           JUNCTION      0.00   330.09     0  03:10           0        5.92       0.063
  WS02006235           JUNCTION      0.00   329.45     0  03:10           0        5.96       0.142
  WS02006238           JUNCTION      0.00   243.33     0  02:45           0        3.48       0.139
  WS02006240           JUNCTION      0.00   242.85     0  02:44           0        3.47       0.149
  WS02006242           JUNCTION      0.00   242.60     0  02:41           0        3.46       0.167
  WS02006243           JUNCTION      0.00   241.80     0  02:43           0        3.46      -0.028
  WS02006245           JUNCTION      0.00   242.90     0  01:47           0        3.46       0.056
  WS02006247           JUNCTION      0.00   246.43     0  01:48           0        3.46       0.005
  WS02006248           JUNCTION      0.00   248.73     0  01:48           0        3.46      -0.022
  WS02006249           JUNCTION      0.00   257.87     0  02:09           0        3.51       0.041
  WS02006239           JUNCTION      0.00   243.18     0  02:44           0        3.47       0.172
  WS02006251           JUNCTION      0.08   257.93     0  02:08     0.00217        3.51      -0.001
  WS02006252           JUNCTION      0.00   200.00     0  02:30           0        3.17       0.002
  WS02006253           JUNCTION      1.44    57.92     0  02:08     0.00747       0.333      -0.094
  WS02006256           JUNCTION      0.00   600.00     0  00:00           0        6.64       0.036
  WS02004138           JUNCTION      0.00   285.00     0  01:50           0         6.3       0.070
  WS02004407           JUNCTION      0.00   594.18     0  02:13           0        7.81       0.061
  WS02006228           JUNCTION      0.00   582.37     0  02:10           0        7.92       0.156
  WS02006229           JUNCTION      0.00   582.15     0  02:10           0        7.93       0.124
  WS02006280           JUNCTION      0.00   274.19     0  02:09           0        1.75       0.004
  WS02006284           JUNCTION      0.10   274.19     0  02:09      0.0027        1.75       0.059
  WS02006287           JUNCTION      0.00   274.08     0  02:09           0        1.75       0.041
  WSF200               JUNCTION      0.00   593.02     0  02:15           0        7.72       0.036
  HS02004901           JUNCTION     12.34    12.34     0  01:36      0.0695      0.0697       2.591
  HS02004881           JUNCTION      5.34    56.62     0  02:08      0.0303       0.326       0.108
  HS02004876           JUNCTION     10.11    51.23     0  02:08      0.0584       0.296       0.182
  HS02004870           JUNCTION     10.08    41.18     0  02:08      0.0575       0.238       0.045
  HS02004862           JUNCTION      9.99    31.21     0  02:08      0.0634        0.18       0.095
  HS02004856           JUNCTION      7.58    21.25     0  02:08      0.0432       0.118       1.232
  HS02004852           JUNCTION      0.00    13.78     0  02:09           0      0.0753       0.072
  HS02004848           JUNCTION     22.44    22.44     0  02:09       0.139       0.139       0.033
  HS02004842           JUNCTION      0.00     8.71     0  02:17           0      0.0763      20.531
  HS02004837           JUNCTION     23.78    32.32     0  02:08       0.279       0.343       0.238
  HS02004830           JUNCTION      0.15    32.46     0  02:09     0.00423       0.333       0.372
  HS02004824           JUNCTION     27.40    59.85     0  02:10       0.181       0.513       0.105
  HS02004817           JUNCTION      0.60    60.44     0  02:10      0.0169       0.529       3.252
  HS02004807           JUNCTION     18.56    78.63     0  02:09       0.106       0.618       0.704
  HS02004802           JUNCTION      0.00    78.69     0  02:10           0       0.615       0.645
  HS02004799           JUNCTION     14.98   164.66     0  02:07      0.0856       0.976       0.270
  HS02004792           JUNCTION     62.86   149.73     0  02:07       0.364       0.891       0.045
  HS02004788           JUNCTION     22.43    86.95     0  02:07       0.166       0.528       0.073
  HS02004785           JUNCTION      0.15    64.59     0  02:07     0.00423       0.363       0.135
  HS02004777           JUNCTION      0.03    64.48     0  02:07    0.000846       0.364       1.448
  HS02004770           JUNCTION     52.29    64.50     0  02:06       0.297       0.365       0.854
  HS02004480           JUNCTION      0.00   195.78     0  02:07           0        1.15       0.099
  HS02004479           JUNCTION      0.00    31.20     0  02:09           0       0.188       0.391
  HS02004478           JUNCTION      0.00   274.07     0  02:08           0        1.75       0.020
  YS02001745           JUNCTION    214.32   438.48     0  02:25        2.14        2.16       0.533
  YS02001748           JUNCTION      0.04   610.97     0  02:25     0.00127        2.15       1.055
  YS02001751           JUNCTION      0.01   318.13     0  02:13     0.00031        2.11       1.122
  YS02001754           JUNCTION      0.26   248.80     0  02:24     0.00733         2.1       1.188
  YS02001762           JUNCTION      0.00   259.06     0  02:32           0        1.81       1.168
  YS02001765           JUNCTION      0.00   257.70     0  02:32           0        1.81       1.356
  YS02001767           JUNCTION      0.54   257.20     0  02:43      0.0151        1.83       1.981
  YS02001770           JUNCTION    259.81   259.81     0  02:54        2.41        2.43       1.312
  YS02001774           JUNCTION      0.00   228.71     0  03:12           0       0.593       4.384
  YS02001779           JUNCTION      0.01   229.06     0  03:12    0.000141       0.563       2.795
  YS02001882           JUNCTION      0.00    24.75     0  02:23           0      0.0158      15.004
  YS02001884           JUNCTION      0.00    46.49     0  02:20           0      0.0531      12.242
  YS02001759           JUNCTION    246.73   501.88     0  02:43        2.23           4       0.572
  YS02001887           JUNCTION    301.84   319.37     0  02:21        2.57        2.61       0.312
  YS02001890           JUNCTION      0.00   306.55     0  02:21           0        2.56       0.345
  YS02001898           JUNCTION      0.00   304.15     0  02:45           0        2.54       0.107
  YS02001901           JUNCTION      0.00   303.11     0  02:51           0        2.54       0.258
  YS02001904           JUNCTION      0.00   303.14     0  02:51           0        2.54       0.236
  YS02001907           JUNCTION      0.00   588.20     0  03:02           0        5.63       0.422
  YS02001910           JUNCTION      0.00   321.54     0  03:06           0         3.1       0.366
  YS02001915           JUNCTION    186.98   320.54     0  03:06         1.8         3.1       0.181
  YS02001918           JUNCTION      0.00   146.78     0  03:06           0         1.3       0.135
  YS02001619           JUNCTION    183.42   183.42     0  02:55        1.79        1.79       0.685
  YS02001629           JUNCTION      0.00   176.62     0  02:39           0        1.66       1.740
  YS02001641           JUNCTION      0.00   375.54     0  02:39           0        3.69       0.569
  YS02001644           JUNCTION    204.56   931.47     0  03:09        2.06        8.02       0.325
  YS02001652           JUNCTION      0.00   293.87     0  02:24           0        1.87       1.227
  YS02001655           JUNCTION      0.15   399.59     0  02:13     0.00434        1.89       1.354
  YS02001920           JUNCTION      2.87   137.83     0  03:04      0.0809        1.31       0.213
  YS02001923           JUNCTION      0.04   111.57     0  03:02     0.00106        1.23       0.048
  YS02001926           JUNCTION      0.05   103.40     0  03:00     0.00147        1.23       0.252
  YS02001929           JUNCTION    100.40   100.40     0  03:01        1.23        1.23       0.039
  YS02001658           JUNCTION      0.00   536.53     0  02:23           0        1.92       1.180
  YS02001661           JUNCTION      0.00   616.87     0  02:41           0         2.7      -0.167
  YS02001664           JUNCTION    219.77   370.04     0  02:41        1.91         2.7       0.282
  YS02001622           JUNCTION      0.00   183.70     0  02:54           0        1.78       1.811
  YS02001633           JUNCTION    208.70   374.78     0  02:39        2.13        3.75       0.857
  YS02001649           JUNCTION      0.00   786.53     0  02:38           0         4.8       0.770
  YS02001757           JUNCTION      0.00  1463.59     0  02:38           0        8.53       1.092
  YS02001895           JUNCTION      0.00   305.59     0  02:39           0        2.55       0.187
  YS02001625           JUNCTION      0.00   183.52     0  02:54           0        1.74       2.265
  YS02163301           JUNCTION      0.00   190.14     0  02:23           0        1.65       1.460
  YS02163601           JUNCTION      0.11   375.16     0  02:39      0.0031        3.71       0.815
  YS02164001           JUNCTION      0.00   375.02     0  02:39           0        3.69       0.544
  YS02001647           JUNCTION      0.00   569.03     0  02:39           0        3.92       0.725
  YSB1154              JUNCTION     18.00    18.00     0  02:07       0.104       0.105       1.400
  YSB6556              JUNCTION      0.00    17.99     0  02:06           0       0.105       1.199
  YSB1174              JUNCTION     13.79    13.79     0  01:35      0.0753      0.0758       1.722
  YSB1171              JUNCTION      0.00    31.24     0  02:07           0       0.187       3.509
  YS02006553           JUNCTION      0.00   588.26     0  03:02           0        5.62       0.268
  YS02006561           JUNCTION      0.00   842.82     0  02:57           0        7.92       0.007
  YS02006556           JUNCTION      0.00   588.43     0  03:02           0        5.62       0.197
  YS02006558           JUNCTION    265.84   843.05     0  02:56        2.36        7.95       0.065
  YS02001783           JUNCTION      0.00   841.41     0  02:57           0        7.92       0.028
  YS02001784           JUNCTION      1.06   842.69     0  02:57      0.0299        7.95       0.042
  YS02001786           JUNCTION      0.06   842.52     0  02:57     0.00159        7.95       0.040
  YS02001788           JUNCTION      0.07   842.60     0  02:57       0.002        7.94       0.023
  YS02001790           JUNCTION      0.15   842.62     0  02:57     0.00437        7.95       0.028
  YS02001791           JUNCTION      0.00   842.70     0  02:57           0        7.94       0.012
  YS02001793           JUNCTION      0.00   842.88     0  02:57           0        7.94       0.002
  WS02004139           JUNCTION      0.32   290.33     0  00:00     0.00905         6.3       0.517
  WSC                  OUTFALL       0.00   901.88     0  02:13           0        14.5       0.000
  3                    OUTFALL       0.00   597.65     0  00:00           0        4.14       0.000
  4                    OUTFALL       0.00    23.22     0  02:10           0      0.0476       0.000
  5                    OUTFALL       0.00     0.00     0  00:00           0           0       0.000 ltr
  JK-storage           STORAGE       0.00   935.74     0  02:15           0        8.09     -11.095
  CC-storage           STORAGE       0.00  1463.60     0  02:38           0        7.07       0.926
  XR-storage           STORAGE     549.18   549.18     0  02:55        9.26        9.86      -0.000
  
  
  **********************
  Node Surcharge Summary
  **********************
  
  Surcharging occurs when water rises above the top of the highest conduit.
  ---------------------------------------------------------------------
                                               Max. Height   Min. Depth
                                   Hours       Above Crown    Below Rim
  Node                 Type      Surcharged         Meters       Meters
  ---------------------------------------------------------------------
  WS02004404           JUNCTION        0.12          0.003        2.777
  WS02006109           JUNCTION        1.73          0.198        1.622
  WS02006110           JUNCTION        1.10          0.045        1.805
  WS02006112           JUNCTION        1.32          0.168        1.512
  WS02006231           JUNCTION        0.47          0.021        1.509
  WS02006232           JUNCTION        1.50          0.151        1.329
  WS02006234           JUNCTION        0.92          0.056        1.184
  WS02006235           JUNCTION        1.26          0.088        1.202
  WS02006238           JUNCTION        1.32          0.104        1.326
  WS02006240           JUNCTION        0.46          0.014        1.376
  WS02006242           JUNCTION        0.86          0.048        0.772
  WS02006239           JUNCTION        0.85          0.044        1.246
  WS02006256           JUNCTION        0.01          1.050        0.000
  WS02006228           JUNCTION        1.71          0.247        1.953
  YS02001748           JUNCTION        5.26          1.190        0.000
  YS02001751           JUNCTION        5.50          1.157        0.043
  YS02001754           JUNCTION        5.73          1.033        0.117
  YS02001762           JUNCTION        5.95          1.027        0.123
  YS02001765           JUNCTION        5.94          0.977        0.123
  YS02001767           JUNCTION        5.92          0.930        0.100
  YS02001770           JUNCTION        5.90          0.876        0.044
  YS02001774           JUNCTION        5.95          0.970        0.080
  YS02001779           JUNCTION        5.72          0.680        0.000
  YS02001882           JUNCTION        0.47          0.182        0.648
  YS02001884           JUNCTION        0.55          0.221        0.649
  YS02001759           JUNCTION        5.98          1.066        0.144
  YS02001887           JUNCTION        0.70          0.317        0.633
  YS02001890           JUNCTION        0.75          0.346        0.414
  YS02001898           JUNCTION        0.36          0.118        0.622
  YS02001901           JUNCTION        0.64          0.276        0.594
  YS02001904           JUNCTION        0.60          0.244        0.606
  YS02001907           JUNCTION        1.43          0.575        0.375
  YS02001910           JUNCTION        0.81          0.376        0.724
  YS02001915           JUNCTION        0.44          0.161        0.839
  YS02001619           JUNCTION        5.53          0.576        0.034
  YS02001629           JUNCTION        5.54          0.470        0.000
  YS02001641           JUNCTION        5.94          0.965        0.135
  YS02001644           JUNCTION        5.95          0.920        0.000
  YS02001652           JUNCTION        5.75          1.122        0.008
  YS02001655           JUNCTION        5.58          1.167        0.033
  YS02001658           JUNCTION        5.30          1.202        0.098
  YS02001661           JUNCTION        0.21          1.243        0.147
  YS02001622           JUNCTION        5.58          0.561        0.059
  YS02001633           JUNCTION        5.93          0.950        0.110
  YS02001649           JUNCTION        5.96          1.050        0.000
  YS02001757           JUNCTION        6.04          1.170        0.040
  YS02001895           JUNCTION        0.40          0.141        0.609
  YS02001625           JUNCTION        5.77          0.780        0.000
  YS02163301           JUNCTION        5.91          0.925        0.105
  YS02163601           JUNCTION        5.96          1.029        0.051
  YS02164001           JUNCTION        5.94          0.969        0.131
  YS02001647           JUNCTION        5.75          0.808        0.092
  YS02006553           JUNCTION        1.51          0.580        0.610
  YS02006556           JUNCTION        1.09          0.494        0.856
  YS02006558           JUNCTION        1.05          0.470        0.930
  YS02001783           JUNCTION        1.20          1.223        0.377
  YS02001784           JUNCTION        1.23          1.327        0.163
  YS02001786           JUNCTION        1.20          1.163        0.267
  YS02001788           JUNCTION        1.18          1.087        0.393
  YS02001790           JUNCTION        2.55          1.157        0.000
  YS02001791           JUNCTION        2.68          0.854        1.066
  YS02001793           JUNCTION        2.88          1.473        1.127
  
  
  *********************
  Node Flooding Summary
  *********************
  
  Flooding refers to all water that overflows a node, whether it ponds or not.
  --------------------------------------------------------------------------
                                                             Total   Maximum
                                 Maximum   Time of Max       Flood    Ponded
                        Hours       Rate    Occurrence      Volume     Depth
  Node                 Flooded       LPS   days hr:min    10^6 ltr    Meters
  --------------------------------------------------------------------------
  WS02006256              0.01    406.11      0  00:00       0.001     0.000
  YS02001748              0.01    172.89      0  02:26       0.000     0.000
  YS02001779              2.59    228.88      0  03:12       0.543     0.000
  YS02001629              0.01     32.89      0  02:26       0.000     0.000
  YS02001644              5.18    931.20      0  03:09       6.359     0.000
  YS02001649              0.07     41.60      0  02:47       0.004     0.000
  YS02001625              0.55     36.28      0  02:55       0.045     0.000
  YS02001790              0.01    115.03      0  02:17       0.000     0.000
  JK-storage              2.24    542.65      0  02:57       2.466     0.000
  XR-storage              5.00    454.18      0  02:55       2.639     0.000
  
  
  **********************
  Storage Volume Summary
  **********************
  
  --------------------------------------------------------------------------------------------------
                         Average     Avg  Evap Exfil       Maximum     Max    Time of Max    Maximum
                          Volume    Pcnt  Pcnt  Pcnt        Volume    Pcnt     Occurrence    Outflow
  Storage Unit           1000 m3    Full  Loss  Loss       1000 m3    Full    days hr:min        LPS
  --------------------------------------------------------------------------------------------------
  JK-storage               0.158      54     0     0         0.291     100       0  02:18     600.00
  CC-storage               3.012      19     0     0         3.820      24       0  03:10     200.00
  XR-storage               0.802      87     0     0         0.926     100       0  02:40     285.00
  
  
  ***********************
  Outfall Loading Summary
  ***********************
  
  -----------------------------------------------------------
                         Flow       Avg       Max       Total
                         Freq      Flow      Flow      Volume
  Outfall Node           Pcnt       LPS       LPS    10^6 ltr
  -----------------------------------------------------------
  WSC                   99.99    570.25    901.88      14.531
  3                     96.23    192.07    597.65       4.138
  4                     17.88     12.41     23.22       0.048
  5                      0.00      0.00      0.00       0.000
  -----------------------------------------------------------
  System                53.53    774.73   1161.21      18.717
  
  
  ********************
  Link Flow Summary
  ********************
  
  -----------------------------------------------------------------------------
                                 Maximum  Time of Max   Maximum    Max/    Max/
                                  |Flow|   Occurrence   |Veloc|    Full    Full
  Link                 Type          LPS  days hr:min     m/sec    Flow   Depth
  -----------------------------------------------------------------------------
  WS02003066WSF200     CONDUIT    593.02     0  02:15      2.83    0.10    0.25
  WS02006287WS02006284 CONDUIT    274.09     0  02:09      1.78    0.13    0.25
  WS02006284WS02006280 CONDUIT    274.19     0  02:09      2.02    0.11    0.23
  WS02006280WS02006229 CONDUIT    274.19     0  02:09      3.26    0.06    0.16
  WS02006229WS02006228 CONDUIT    582.37     0  02:10      1.16    1.93    1.00
  WS02006256WS02006235 CONDUIT    177.52     0  00:01      2.73    1.88    1.00
  WS02006253WS02006251 CONDUIT     57.86     0  02:08      0.52    0.17    0.75
  WS02006252WS02006251 CONDUIT    200.85     0  01:42      1.97    0.74    0.76
  WS02006251WS02006249 CONDUIT    257.87     0  02:09      0.99    0.74    0.76
  WS02006249WS02006248 CONDUIT    248.73     0  01:48      1.07    1.36    0.76
  WS02006248WS02006247 CONDUIT    246.43     0  01:48      1.04    0.54    0.81
  WS02006247WS02006245 CONDUIT    242.90     0  01:47      0.99    1.93    0.86
  WS02006245WS02006243 CONDUIT    241.80     0  02:43      1.04    0.72    0.89
  WS02006243WS02006242 CONDUIT    242.60     0  02:41      0.83    0.52    0.97
  WS02006242WS02006240 CONDUIT    242.85     0  02:44      0.70    0.96    1.00
  WS02006240WS02006239 CONDUIT    243.18     0  02:44      0.68    0.77    1.00
  WS02006239WS02006238 CONDUIT    243.33     0  02:45      0.69    0.78    1.00
  WS02006238WS02006235 CONDUIT    243.33     0  02:45      1.32    0.54    1.00
  WS02006235WS02006234 CONDUIT    330.09     0  03:10      0.94    3.48    1.00
  WS02006234WS02006232 CONDUIT    331.16     0  03:10      1.17    0.67    1.00
  WS02006232WS02006231 CONDUIT    331.26     0  03:10      0.94    0.69    1.00
  WS02006231WS02006230 CONDUIT    333.03     0  03:09      1.29    5.05    0.99
  WS02006230WS02006229 CONDUIT    345.53     0  03:09      0.90    7.69    1.00
  WS02006228WS02006109 CONDUIT    582.35     0  02:10      1.16    2.54    1.00
  WS02006116WS02004401 CONDUIT    595.28     0  02:12      0.81    0.82    0.89
  WS02006115WS02006116 CONDUIT    596.90     0  02:12      0.88    0.77    0.81
  WS02006113WS02006111 CONDUIT    611.25     0  02:09      2.54    0.73    0.48
  WS02006112WS02006115 CONDUIT    608.43     0  02:04      0.82    0.36    0.90
  WS02006111WS02006112 CONDUIT    591.63     0  02:09      1.62    0.28    0.68
  WS02006110WS02006113 CONDUIT    584.35     0  02:10      1.36    0.53    0.80
  WS02006109WS02006110 CONDUIT    583.56     0  02:10      1.16    1.12    1.00
  WS02004411WS02004412 CONDUIT    593.19     0  02:14      0.97    0.84    0.73
  WS02004401WS02004402 CONDUIT    595.61     0  02:13      0.79    0.72    0.91
  WS02004413WS02003067 CONDUIT    592.85     0  02:15      1.17    0.25    0.61
  WS02004412WS02004413 CONDUIT    593.00     0  02:15      0.87    0.40    0.81
  WS02004410WS02004411 CONDUIT    593.23     0  02:14      0.98    0.81    0.72
  WS02004409WS02004410 CONDUIT    593.50     0  02:14      0.99    0.77    0.71
  WS02004407WS02004409 CONDUIT    593.77     0  02:13      1.49    0.21    0.51
  WS02004406WS02004407 CONDUIT    594.18     0  02:13      1.10    0.27    0.65
  WS02004405WS02004406 CONDUIT    594.67     0  02:13      0.76    1.17    0.99
  WS02004404WS02004405 CONDUIT    594.83     0  02:13      0.76    5.83    1.00
  WS02004403WS02004404 CONDUIT    594.55     0  02:13      0.77    0.43    0.97
  WS02004402WS02004403 CONDUIT    594.32     0  02:13      0.78    0.85    0.93
  WS02004139WS02001211 CONDUIT    285.35     0  04:32      0.80    0.36    0.54
  WS02004138WS02004139 CONDUIT    290.01     0  00:00      3.34    0.06    0.39
  WS02003067WS02003066 CONDUIT    592.91     0  02:15      1.27    0.19    0.43
  WS02001213WS02003059 CONDUIT    292.87     0  01:43      0.80    0.48    0.74
  WS02001212WS02001213 CONDUIT    292.76     0  04:32      1.19    0.45    0.43
  WS02001211WS02001212 CONDUIT    292.73     0  04:32      0.67    0.22    0.59
  WS02003072WS02003073 CONDUIT    900.12     0  02:12      1.70    1.94    0.47
  WS02003069WS02003072 CONDUIT    900.16     0  02:12      1.60    0.43    0.50
  WS02003060WS02003069 CONDUIT    899.92     0  02:12      1.85    0.35    0.45
  WS02003059WS02003060 CONDUIT    293.37     0  01:43      0.82    0.19    0.64
  HS02004901HS02004770 CONDUIT     12.22     0  02:07      0.05    0.05    0.35
  HS02004876HS02004881 CONDUIT     51.32     0  02:08      0.76    0.55    0.10
  HS02004870HS02004876 CONDUIT     41.17     0  02:09      0.52    0.03    0.11
  HS02004842HS02004848 CONDUIT      8.71     0  02:17      0.04    0.01    0.29
  HS02004837HS02004842 CONDUIT      8.85     0  02:14      0.41    0.01    0.30
  HS02004830HS02004837 CONDUIT     32.31     0  02:09      0.50    0.03    0.09
  HS02004824HS02004830 CONDUIT     32.45     0  02:09      0.53    0.04    0.09
  HS02004817HS02004824 CONDUIT     59.84     0  02:10      0.20    0.03    0.43
  HS02004770HS02004777 CONDUIT     64.45     0  02:07      0.26    0.12    0.36
  HS02004799HS02004480 CONDUIT    164.63     0  02:07      0.67    0.21    0.35
  HS02004792HS02004799 CONDUIT    149.69     0  02:07      0.76    0.09    0.28
  HS02004788HS02004792 CONDUIT     86.94     0  02:08      0.90    0.06    0.14
  HS02004785HS02004788 CONDUIT     64.57     0  02:08      0.57    0.49    0.16
  HS02004777HS02004785 CONDUIT     64.44     0  02:07      0.31    0.08    0.29
  HS02004480HS02004478 CONDUIT    195.75     0  02:08      1.06    0.82    0.26
  HS02004479HS02004480 CONDUIT     31.31     0  02:10      0.28    0.03    0.34
  HS02004862HS02004870 CONDUIT     31.19     0  02:09      0.56    0.03    0.08
  HS02004848HS02004852 CONDUIT     13.78     0  02:09      0.38    0.02    0.05
  HS02004856HS02004862 CONDUIT     21.24     0  02:09      0.41    0.02    0.07
  HS02004852HS02004856 CONDUIT     13.76     0  02:09      0.18    0.02    0.11
  HS02004802HS02004478 CONDUIT     78.88     0  02:11      0.38    0.07    0.29
  HS02004478WS02006287 CONDUIT    274.08     0  02:09      1.48    0.08    0.21
  HS02004817HS02004807 CONDUIT     60.62     0  02:11      0.15    0.04    0.56
  HS02004807HS02004802 CONDUIT     78.69     0  02:10      0.32    0.15    0.35
  YS02001759YS02001757 CONDUIT    501.99     0  02:43      0.64    0.36    1.00
  YS02001762YS02001759 CONDUIT    260.41     0  02:32      0.33    0.30    1.00
  YS02001765YS02001762 CONDUIT    259.06     0  02:32      0.33    0.24    1.00
  YS02001770YS02001767 CONDUIT    256.67     0  02:43      0.38    1.02    1.00
  YS02001774YS02001770 CONDUIT    228.71     0  03:12      0.29    0.15    1.00
  YS02001779YS02001774 CONDUIT    229.05     0  03:12      0.29    0.12    1.00
  YS02001649YS02001757 CONDUIT    786.74     0  02:38      1.00    0.48    1.00
  YS02001767YS02001765 CONDUIT    257.70     0  02:32      0.35    0.32    1.00
  YS02006561YS02001783 CONDUIT    841.41     0  02:57      2.11    0.44    1.00
  YS02001783YS02001784 CONDUIT    841.63     0  02:57      1.67    1.16    1.00
  YS02001784YS02001785 CONDUIT    842.46     0  02:57      1.76    1.96    1.00
  YS02001788YS02001790 CONDUIT    842.47     0  02:57      2.28    0.62    1.00
  YS02001790YS02001791 CONDUIT    842.70     0  02:57      2.77    0.92    1.00
  YS02001791YS02001793 CONDUIT    842.88     0  02:57      5.56    0.36    1.00
  YS02001910YS02001907 CONDUIT    321.42     0  03:06      0.49    0.18    1.00
  YS02001786YS02001788 CONDUIT    842.53     0  02:57      2.19    1.62    1.00
  YS02001915YS02001910 CONDUIT    321.54     0  03:06      0.56    0.16    1.00
  YS02001918YS02001915 CONDUIT    150.24     0  03:06      0.44    0.08    0.91
  YS02001923YS02001920 CONDUIT    134.96     0  03:04      0.66    0.06    0.75
  YS02001926YS02001923 CONDUIT    111.53     0  03:02      0.76    0.16    0.42
  YS02001929YS02001926 CONDUIT    103.34     0  03:00      0.81    0.05    0.31
  YS02001920YS02001918 CONDUIT    146.78     0  03:06      0.65    0.14    0.84
  YS02001629YS02163301 CONDUIT    190.14     0  02:23      0.24    0.23    1.00
  YS02001619YS02001622 CONDUIT    183.70     0  02:54      0.67    0.27    1.00
  YS02001622YS02001625 CONDUIT    183.52     0  02:54      0.32    0.10    1.00
  YS02001625YS02001629 CONDUIT    176.62     0  02:39      0.27    0.08    1.00
  YS02163301YS02001633 CONDUIT    190.59     0  02:23      0.24    0.18    1.00
  YS02163601YS02164001 CONDUIT    375.02     0  02:39      0.48    0.33    1.00
  YS02164001YS02001641 CONDUIT    375.54     0  02:39      0.48    0.51    1.00
  YS02001641YS02001644 CONDUIT    375.82     0  02:39      0.48    1.21    1.00
  YS02001647YS02001649 CONDUIT    569.59     0  02:39      0.73    0.30    1.00
  YS02006553YS02006556 CONDUIT    588.43     0  03:02      0.75    0.50    1.00
  YS02006556YS02006558 CONDUIT    588.44     0  03:02      0.75    0.46    1.00
  YSB6556YSB1171       CONDUIT     18.03     0  02:09      0.07    0.02    0.61
  YS02001907YS02006553 CONDUIT    588.26     0  03:02      0.65    0.69    1.00
  YS02006558YS02006561 CONDUIT    842.82     0  02:57      3.20    1.86    1.00
  YS02001633YS02163601 CONDUIT    375.05     0  02:39      0.48    0.39    1.00
  YS02001644YS02001647 CONDUIT    569.03     0  02:39      0.72    0.33    1.00
  YS02001745YS02001748 CONDUIT    610.93     0  02:25      1.53    0.24    0.93
  YS02001748YS02001751 CONDUIT    318.11     0  02:13      1.14    0.16    1.00
  YS02001751YS02001754 CONDUIT    248.54     0  02:24      0.97    0.12    1.00
  YS02001754YS02001757 CONDUIT    249.16     0  02:24      0.33    0.10    1.00
  YS02001882YS02001884 CONDUIT     24.75     0  02:23      0.12    0.03    1.00
  YS02001884YS02001887 CONDUIT     46.49     0  02:20      0.09    0.06    1.00
  YS02001890YS02001895 CONDUIT    305.59     0  02:39      0.46    0.14    1.00
  YS02001895YS02001898 CONDUIT    304.15     0  02:45      0.57    0.53    1.00
  YS02001898YS02001901 CONDUIT    303.11     0  02:51      0.50    0.20    1.00
  YS02001901YS02001904 CONDUIT    303.14     0  02:51      0.46    0.47    1.00
  YS02001904YS02001907 CONDUIT    303.20     0  02:45      0.40    0.11    1.00
  YS02001887YS02001890 CONDUIT    306.55     0  02:21      0.42    0.52    1.00
  YS02001652YS02001649 CONDUIT    298.76     0  02:09      0.58    0.15    1.00
  YS02001655YS02001652 CONDUIT    293.87     0  02:24      1.05    0.14    1.00
  YS02001658YS02001655 CONDUIT    399.44     0  02:13      1.31    0.17    1.00
  YS02001661YS02001658 CONDUIT    536.53     0  02:23      1.61    0.21    1.00
  YS02001664YS02001661 CONDUIT    616.87     0  02:41      1.57    0.19    0.71
  YSB1154YSB6556       CONDUIT     17.99     0  02:06      0.16    0.03    0.50
  YSB1174YSB1171       CONDUIT     13.75     0  01:36      0.06    0.02    0.62
  YSB1171HS02004479    CONDUIT     31.20     0  02:09      0.54    0.02    0.48
  HS02004881HS02006253 CONDUIT     56.61     0  02:08      1.79    0.01    0.17
  YS02001793JiankangQianchi CONDUIT    935.74     0  02:15     14.50    0.07    1.00
  YS02001757CaochengTiaoxuchi CONDUIT   1463.60     0  02:38      2.39    0.64    1.00
  WSF200WS02003060     CONDUIT    594.26     0  02:15      1.89    0.13    0.35
  1                    CONDUIT    901.88     0  02:13      3.24    0.31    0.38
  2                    CONDUIT     23.22     0  02:10      3.18    0.06    0.16
  3                    CONDUIT    597.65     0  00:00     10.05    0.95    0.86
  4                    CONDUIT      0.00     0  00:00      0.00    0.00    0.00
  CC-Pump-1            PUMP       200.00     0  01:42              1.00
  CC-Pump-2            PUMP       200.00     0  02:40              1.00
  JK-Pump-1            PUMP       300.00     0  00:00              1.00
  JK-Pump-2            PUMP       300.00     0  00:00              1.00
  XR-Pump-1            PUMP        95.00     0  02:00              1.00
  XR-Pump-2            PUMP        95.00     0  00:00              1.00
  XR-Pump-3            PUMP        95.00     0  00:00              1.00
  XR-Pump-4            PUMP        95.00     0  00:00              1.00
  
  
  ***************************
  Flow Classification Summary
  ***************************
  
  -------------------------------------------------------------------------------------
                      Adjusted    ---------- Fraction of Time in Flow Class ---------- 
                       /Actual         Up    Down  Sub   Sup   Up    Down  Norm  Inlet 
  Conduit               Length    Dry  Dry   Dry   Crit  Crit  Crit  Crit  Ltd   Ctrl  
  -------------------------------------------------------------------------------------
  WS02003066WSF200        1.00   0.07  0.00  0.00  0.00  0.93  0.00  0.00  0.60  0.00
  WS02006287WS02006284    1.00   0.03  0.01  0.00  0.57  0.39  0.00  0.00  0.68  0.00
  WS02006284WS02006280    1.00   0.04  0.00  0.00  0.00  0.00  0.00  0.96  0.00  0.00
  WS02006280WS02006229    1.00   0.04  0.00  0.00  0.00  0.00  0.00  0.96  0.00  0.00
  WS02006229WS02006228    1.00   0.00  0.00  0.00  0.98  0.00  0.00  0.02  0.00  0.00
  WS02006256WS02006235    1.00   0.00  0.00  0.00  1.00  0.00  0.00  0.00  0.00  0.00
  WS02006253WS02006251    1.00   0.02  0.01  0.00  0.96  0.00  0.00  0.00  0.00  0.00
  WS02006252WS02006251    1.00   0.06  0.00  0.00  0.00  0.00  0.94  0.00  0.00  0.00
  WS02006251WS02006249    1.00   0.00  0.00  0.00  1.00  0.00  0.00  0.00  0.40  0.00
  WS02006249WS02006248    1.00   0.00  0.02  0.00  0.74  0.00  0.24  0.00  0.00  0.00
  WS02006248WS02006247    1.00   0.02  0.00  0.00  0.97  0.00  0.00  0.01  0.28  0.00
  WS02006247WS02006245    1.00   0.02  0.00  0.00  0.96  0.00  0.00  0.02  0.00  0.00
  WS02006245WS02006243    1.00   0.02  0.00  0.00  0.95  0.00  0.00  0.03  0.01  0.00
  WS02006243WS02006242    1.00   0.01  0.00  0.00  0.99  0.00  0.00  0.00  0.17  0.00
  WS02006242WS02006240    1.00   0.01  0.00  0.00  0.99  0.00  0.00  0.00  0.00  0.00
  WS02006240WS02006239    1.00   0.00  0.00  0.00  0.97  0.00  0.00  0.03  0.01  0.00
  WS02006239WS02006238    1.00   0.00  0.00  0.00  1.00  0.00  0.00  0.00  0.00  0.00
  WS02006238WS02006235    1.00   0.00  0.00  0.00  1.00  0.00  0.00  0.00  0.00  0.00
  WS02006235WS02006234    1.00   0.00  0.00  0.00  0.96  0.00  0.04  0.00  0.00  0.00
  WS02006234WS02006232    1.00   0.00  0.00  0.00  1.00  0.00  0.00  0.00  0.00  0.00
  WS02006232WS02006231    1.00   0.00  0.00  0.00  0.99  0.00  0.01  0.00  0.00  0.00
  WS02006231WS02006230    1.00   0.00  0.00  0.00  0.52  0.00  0.47  0.00  0.00  0.00
  WS02006230WS02006229    1.00   0.00  0.00  0.00  0.98  0.00  0.00  0.02  0.01  0.00
  WS02006228WS02006109    1.00   0.00  0.00  0.00  1.00  0.00  0.00  0.00  0.00  0.00
  WS02006116WS02004401    1.00   0.02  0.00  0.00  0.98  0.00  0.00  0.00  0.00  0.00
  WS02006115WS02006116    1.00   0.02  0.00  0.00  0.97  0.00  0.00  0.01  0.01  0.00
  WS02006113WS02006111    1.00   0.02  0.00  0.00  0.00  0.98  0.00  0.00  0.12  0.00
  WS02006112WS02006115    1.00   0.02  0.00  0.00  0.98  0.00  0.00  0.00  0.00  0.00
  WS02006111WS02006112    1.00   0.02  0.00  0.00  0.98  0.00  0.00  0.00  0.97  0.00
  WS02006110WS02006113    1.00   0.01  0.00  0.00  0.98  0.00  0.00  0.00  0.00  0.00
  WS02006109WS02006110    1.00   0.00  0.01  0.00  0.98  0.00  0.00  0.00  0.00  0.00
  WS02004411WS02004412    1.00   0.05  0.00  0.00  0.95  0.00  0.00  0.00  0.00  0.00
  WS02004401WS02004402    1.00   0.02  0.00  0.00  0.98  0.00  0.00  0.00  0.00  0.00
  WS02004413WS02003067    1.00   0.05  0.01  0.00  0.00  0.00  0.94  0.00  0.00  0.00
  WS02004412WS02004413    1.00   0.05  0.00  0.00  0.95  0.00  0.00  0.00  0.00  0.00
  WS02004410WS02004411    1.00   0.05  0.00  0.00  0.95  0.00  0.00  0.00  0.00  0.00
  WS02004409WS02004410    1.00   0.05  0.00  0.00  0.95  0.00  0.00  0.00  0.00  0.00
  WS02004407WS02004409    1.00   0.05  0.00  0.00  0.95  0.00  0.00  0.00  0.81  0.00
  WS02004406WS02004407    1.00   0.00  0.04  0.00  0.95  0.00  0.00  0.00  0.00  0.00
  WS02004405WS02004406    1.00   0.00  0.00  0.00  1.00  0.00  0.00  0.00  0.02  0.00
  WS02004404WS02004405    1.00   0.00  0.00  0.00  1.00  0.00  0.00  0.00  0.00  0.00
  WS02004403WS02004404    1.00   0.00  0.02  0.00  0.98  0.00  0.00  0.00  0.02  0.00
  WS02004402WS02004403    1.00   0.02  0.00  0.00  0.98  0.00  0.00  0.00  0.00  0.00
  WS02004139WS02001211    1.00   0.00  0.00  0.00  0.99  0.00  0.01  0.00  0.00  0.00
  WS02004138WS02004139    1.00   0.00  0.00  0.00  0.99  0.01  0.00  0.00  1.00  0.00
  WS02003067WS02003066    1.00   0.06  0.01  0.00  0.93  0.00  0.00  0.00  0.00  0.00
  WS02001213WS02003059    1.00   0.00  0.00  0.00  0.99  0.00  0.00  0.00  0.00  0.00
  WS02001212WS02001213    1.00   0.01  0.00  0.00  0.74  0.00  0.25  0.00  0.00  0.00
  WS02001211WS02001212    1.00   0.00  0.00  0.00  1.00  0.00  0.00  0.00  0.00  0.00
  WS02003072WS02003073    1.00   0.00  0.00  0.00  0.00  0.00  0.00  1.00  0.00  0.00
  WS02003069WS02003072    1.00   0.00  0.00  0.00  0.99  0.01  0.00  0.00  0.35  0.00
  WS02003060WS02003069    1.00   0.00  0.00  0.00  0.99  0.01  0.00  0.00  0.00  0.00
  WS02003059WS02003060    1.00   0.00  0.00  0.00  0.99  0.01  0.00  0.00  0.01  0.00
  HS02004901HS02004770    1.00   0.04  0.00  0.00  0.96  0.00  0.00  0.00  0.00  0.00
  HS02004876HS02004881    1.00   0.02  0.00  0.00  0.98  0.00  0.00  0.00  0.00  0.00
  HS02004870HS02004876    1.00   0.01  0.00  0.00  0.99  0.00  0.00  0.00  0.95  0.00
  HS02004842HS02004848    1.00   0.00  0.04  0.00  0.96  0.00  0.00  0.00  0.58  0.00
  HS02004837HS02004842    1.00   0.00  0.00  0.00  0.99  0.01  0.00  0.00  0.11  0.00
  HS02004830HS02004837    1.00   0.00  0.00  0.00  1.00  0.00  0.00  0.00  0.99  0.00
  HS02004824HS02004830    1.00   0.00  0.00  0.00  1.00  0.00  0.00  0.00  0.00  0.00
  HS02004817HS02004824    1.00   0.00  0.00  0.00  1.00  0.00  0.00  0.00  1.00  0.00
  HS02004770HS02004777    1.00   0.00  0.04  0.00  0.96  0.00  0.00  0.00  0.03  0.00
  HS02004799HS02004480    1.00   0.00  0.02  0.00  0.96  0.00  0.02  0.00  0.00  0.00
  HS02004792HS02004799    1.00   0.00  0.00  0.00  0.99  0.01  0.00  0.00  0.98  0.00
  HS02004788HS02004792    1.00   0.00  0.00  0.00  0.99  0.01  0.00  0.00  0.98  0.00
  HS02004785HS02004788    1.00   0.00  0.00  0.00  1.00  0.00  0.00  0.00  0.00  0.00
  HS02004777HS02004785    1.00   0.00  0.00  0.00  1.00  0.00  0.00  0.00  0.12  0.00
  HS02004480HS02004478    1.00   0.04  0.00  0.00  0.63  0.00  0.00  0.34  0.00  0.00
  HS02004479HS02004480    1.00   0.02  0.00  0.00  0.98  0.00  0.00  0.00  0.12  0.00
  HS02004862HS02004870    1.00   0.00  0.00  0.00  1.00  0.00  0.00  0.00  0.04  0.00
  HS02004848HS02004852    1.00   0.04  0.00  0.00  0.96  0.00  0.00  0.00  0.76  0.00
  HS02004856HS02004862    1.00   0.00  0.04  0.00  0.96  0.00  0.00  0.00  0.83  0.00
  HS02004852HS02004856    1.00   0.04  0.00  0.00  0.96  0.00  0.00  0.00  0.86  0.00
  HS02004802HS02004478    1.00   0.04  0.00  0.00  0.96  0.00  0.00  0.00  0.03  0.00
  HS02004478WS02006287    1.00   0.04  0.00  0.00  0.70  0.26  0.00  0.00  0.65  0.00
  HS02004817HS02004807    1.00   0.00  0.04  0.00  0.96  0.00  0.00  0.00  0.01  0.00
  HS02004807HS02004802    1.00   0.04  0.00  0.00  0.96  0.00  0.00  0.00  0.00  0.00
  YS02001759YS02001757    1.00   0.00  0.00  0.00  1.00  0.00  0.00  0.00  0.16  0.00
  YS02001762YS02001759    1.00   0.00  0.00  0.00  1.00  0.00  0.00  0.00  0.03  0.00
  YS02001765YS02001762    1.00   0.00  0.00  0.00  1.00  0.00  0.00  0.00  0.14  0.00
  YS02001770YS02001767    1.00   0.00  0.00  0.00  1.00  0.00  0.00  0.00  0.00  0.00
  YS02001774YS02001770    1.00   0.00  0.04  0.00  0.96  0.00  0.00  0.00  0.03  0.00
  YS02001779YS02001774    1.00   0.00  0.00  0.00  1.00  0.00  0.00  0.00  0.18  0.00
  YS02001649YS02001757    1.00   0.00  0.00  0.00  1.00  0.00  0.00  0.00  0.16  0.00
  YS02001767YS02001765    1.00   0.00  0.00  0.00  1.00  0.00  0.00  0.00  0.00  0.00
  YS02006561YS02001783    1.00   0.05  0.00  0.00  0.42  0.54  0.00  0.00  0.59  0.00
  YS02001783YS02001784    1.00   0.00  0.05  0.00  0.95  0.00  0.00  0.00  0.00  0.00
  YS02001784YS02001785    1.00   0.00  0.00  0.00  1.00  0.00  0.00  0.00  0.17  0.00
  YS02001788YS02001790    1.00   0.00  0.00  0.00  0.50  0.50  0.00  0.00  0.52  0.00
  YS02001790YS02001791    1.00   0.00  0.00  0.00  0.48  0.52  0.00  0.00  0.41  0.00
  YS02001791YS02001793    1.00   0.00  0.00  0.00  0.49  0.51  0.00  0.00  0.02  0.00
  YS02001910YS02001907    1.00   0.00  0.00  0.00  0.98  0.00  0.00  0.02  0.12  0.00
  YS02001786YS02001788    1.00   0.00  0.00  0.00  0.48  0.52  0.00  0.00  0.00  0.00
  YS02001915YS02001910    1.00   0.00  0.00  0.00  0.99  0.01  0.00  0.00  0.16  0.00
  YS02001918YS02001915    1.00   0.00  0.01  0.00  0.99  0.00  0.00  0.00  0.59  0.00
  YS02001923YS02001920    1.00   0.00  0.00  0.00  1.00  0.00  0.00  0.00  0.87  0.00
  YS02001926YS02001923    1.00   0.00  0.03  0.00  0.10  0.00  0.87  0.00  0.00  0.00
  YS02001929YS02001926    1.00   0.00  0.04  0.00  0.96  0.00  0.00  0.00  0.85  0.00
  YS02001920YS02001918    1.00   0.00  0.01  0.00  0.99  0.00  0.00  0.00  0.00  0.00
  YS02001629YS02163301    1.00   0.04  0.00  0.00  0.96  0.00  0.00  0.00  0.00  0.00
  YS02001619YS02001622    1.00   0.04  0.00  0.00  0.96  0.00  0.00  0.00  0.00  0.00
  YS02001622YS02001625    1.00   0.04  0.00  0.00  0.96  0.00  0.00  0.00  0.04  0.00
  YS02001625YS02001629    1.00   0.04  0.01  0.00  0.94  0.00  0.02  0.00  0.00  0.00
  YS02163301YS02001633    1.00   0.00  0.04  0.00  0.96  0.00  0.00  0.00  0.00  0.00
  YS02163601YS02164001    1.00   0.00  0.03  0.00  0.97  0.00  0.00  0.00  0.00  0.00
  YS02164001YS02001641    1.00   0.01  0.02  0.00  0.97  0.00  0.00  0.00  0.06  0.00
  YS02001641YS02001644    1.00   0.00  0.01  0.00  0.99  0.00  0.00  0.00  0.00  0.00
  YS02001647YS02001649    1.00   0.00  0.04  0.00  0.96  0.00  0.00  0.00  0.01  0.00
  YS02006553YS02006556    1.00   0.02  0.00  0.00  0.98  0.00  0.00  0.00  0.03  0.00
  YS02006556YS02006558    1.00   0.00  0.00  0.00  1.00  0.00  0.00  0.00  0.00  0.00
  YSB6556YSB1171          1.00   0.02  0.01  0.00  0.96  0.00  0.00  0.00  0.00  0.00
  YS02001907YS02006553    1.00   0.00  0.01  0.00  0.98  0.00  0.00  0.00  0.00  0.00
  YS02006558YS02006561    1.00   0.05  0.00  0.00  0.16  0.80  0.00  0.00  0.51  0.00
  YS02001633YS02163601    1.00   0.00  0.01  0.00  0.99  0.00  0.00  0.00  0.15  0.00
  YS02001644YS02001647    1.00   0.00  0.04  0.00  0.96  0.00  0.00  0.00  0.00  0.00
  YS02001745YS02001748    1.00   0.00  0.00  0.00  0.90  0.01  0.00  0.09  0.04  0.00
  YS02001748YS02001751    1.00   0.00  0.00  0.00  0.97  0.03  0.00  0.00  0.14  0.00
  YS02001751YS02001754    1.00   0.00  0.00  0.00  0.95  0.00  0.00  0.05  0.02  0.00
  YS02001754YS02001757    1.00   0.00  0.00  0.00  0.99  0.01  0.00  0.00  0.18  0.00
  YS02001882YS02001884    1.00   0.04  0.00  0.00  0.96  0.00  0.00  0.00  0.00  0.00
  YS02001884YS02001887    1.00   0.02  0.01  0.00  0.97  0.00  0.00  0.00  0.00  0.00
  YS02001890YS02001895    1.00   0.00  0.04  0.00  0.96  0.00  0.00  0.00  0.00  0.00
  YS02001895YS02001898    1.00   0.04  0.00  0.00  0.95  0.00  0.01  0.00  0.00  0.00
  YS02001898YS02001901    1.00   0.04  0.00  0.00  0.96  0.00  0.00  0.00  0.01  0.00
  YS02001901YS02001904    1.00   0.04  0.00  0.00  0.96  0.00  0.00  0.00  0.00  0.00
  YS02001904YS02001907    1.00   0.00  0.04  0.00  0.96  0.00  0.00  0.00  0.00  0.00
  YS02001887YS02001890    1.00   0.00  0.00  0.00  0.98  0.00  0.02  0.00  0.00  0.00
  YS02001652YS02001649    1.00   0.00  0.00  0.00  1.00  0.00  0.00  0.00  0.16  0.00
  YS02001655YS02001652    1.00   0.00  0.00  0.00  0.95  0.00  0.00  0.05  0.02  0.00
  YS02001658YS02001655    1.00   0.00  0.04  0.00  0.94  0.02  0.00  0.00  0.03  0.00
  YS02001661YS02001658    1.00   0.04  0.00  0.00  0.90  0.06  0.00  0.00  0.04  0.00
  YS02001664YS02001661    1.00   0.04  0.00  0.00  0.86  0.11  0.00  0.00  0.19  0.00
  YSB1154YSB6556          1.00   0.04  0.00  0.00  0.96  0.00  0.00  0.00  0.02  0.00
  YSB1174YSB1171          1.00   0.02  0.01  0.00  0.97  0.00  0.00  0.00  0.00  0.00
  YSB1171HS02004479       1.00   0.02  0.00  0.00  0.98  0.00  0.00  0.00  0.10  0.00
  HS02004881HS02006253    1.00   0.02  0.00  0.00  0.71  0.00  0.00  0.26  0.56  0.00
  YS02001793JiankangQianchi    1.00   0.00  0.00  0.00  0.63  0.36  0.00  0.00  0.11  0.00
  YS02001757CaochengTiaoxuchi    1.00   0.00  0.06  0.00  0.92  0.02  0.00  0.00  0.00  0.00
  WSF200WS02003060        1.00   0.00  0.07  0.00  0.62  0.30  0.00  0.00  0.20  0.00
  1                       1.00   0.00  0.00  0.00  0.00  1.00  0.00  0.00  0.31  0.00
  2                       1.00   0.82  0.00  0.00  0.00  0.18  0.00  0.00  0.02  0.00
  3                       1.00   0.04  0.00  0.00  0.00  0.96  0.00  0.00  0.00  0.00
  4                       1.00   1.00  0.00  0.00  0.00  0.00  0.00  0.00  0.00  0.00
  
  
  *************************
  Conduit Surcharge Summary
  *************************
  
  ----------------------------------------------------------------------------
                                                           Hours        Hours 
                         --------- Hours Full --------   Above Full   Capacity
  Conduit                Both Ends  Upstream  Dnstream   Normal Flow   Limited
  ----------------------------------------------------------------------------
  WS02006229WS02006228        1.70      1.76      1.70      4.50         1.70
  WS02006256WS02006235        6.28      6.28      7.83      4.96         0.01
  WS02006249WS02006248        0.01      0.01      0.01      4.33         0.01
  WS02006247WS02006245        0.01      0.01      0.01      4.39         0.01
  WS02006243WS02006242        0.01      0.01      0.86      0.01         0.01
  WS02006242WS02006240        0.46      0.46      1.18      0.01         0.01
  WS02006240WS02006239        0.66      0.66      0.85      0.01         0.01
  WS02006239WS02006238        1.24      1.24      1.32      0.01         0.01
  WS02006238WS02006235        1.30      1.30      1.39      0.01         0.01
  WS02006235WS02006234        0.92      0.92      1.26      6.30         0.01
  WS02006234WS02006232        1.18      1.18      1.50      0.01         0.01
  WS02006232WS02006231        0.46      0.46      1.50      0.01         0.01
  WS02006231WS02006230        0.01      0.01      0.63      6.27         0.01
  WS02006230WS02006229        2.24      4.43      2.24      6.33         2.24
  WS02006228WS02006109        1.73      1.93      1.73      4.63         1.73
  WS02006112WS02006115        0.01      0.01      1.32      0.01         0.01
  WS02006111WS02006112        0.01      0.01      4.51      0.01         0.01
  WS02006110WS02006113        0.01      0.01      1.83      0.01         0.01
  WS02006109WS02006110        1.10      1.10      1.93      1.10         0.01
  WS02004405WS02004406        0.01      0.01      0.01      1.25         0.01
  WS02004404WS02004405        0.01      0.11      0.01      6.24         0.01
  WS02004403WS02004404        0.01      0.01      0.11      0.01         0.01
  WS02003072WS02003073        0.01      0.01      0.01      4.63         0.01
  YS02001759YS02001757        5.98      5.98      6.04      0.01         0.01
  YS02001762YS02001759        5.95      5.95      5.98      0.01         0.01
  YS02001765YS02001762        5.94      5.94      5.95      0.01         0.01
  YS02001770YS02001767        5.92      5.92      5.92      0.08         0.76
  YS02001774YS02001770        5.90      5.90      5.95      0.01         0.01
  YS02001779YS02001774        5.72      5.72      5.95      0.01         0.01
  YS02001649YS02001757        5.96      5.96      6.04      0.01         0.01
  YS02001767YS02001765        5.92      5.92      5.94      0.01         0.01
  YS02006561YS02001783        0.01      0.01      1.20      0.01         0.01
  YS02001783YS02001784        1.20      1.20      1.23      0.89         0.81
  YS02001784YS02001785        1.20      1.23      1.20      2.03         1.20
  YS02001788YS02001790        1.18      1.18      2.55      0.01         0.01
  YS02001790YS02001791        2.55      2.55      2.68      0.01         0.01
  YS02001791YS02001793        2.68      2.68      2.95      0.01         0.01
  YS02001910YS02001907        0.81      0.81      1.43      0.01         0.01
  YS02001786YS02001788        1.18      1.20      1.18      1.63         1.18
  YS02001915YS02001910        0.44      0.44      0.81      0.01         0.01
  YS02001918YS02001915        0.01      0.01      0.44      0.01         0.01
  YS02001629YS02163301        5.86      5.86      5.91      0.01         0.01
  YS02001619YS02001622        5.53      5.53      5.58      0.01         0.01
  YS02001622YS02001625        5.58      5.58      5.77      0.01         0.01
  YS02001625YS02001629        5.54      5.54      5.77      0.01         0.01
  YS02163301YS02001633        5.91      5.91      5.95      0.01         0.01
  YS02163601YS02164001        5.94      5.94      5.96      0.01         0.01
  YS02164001YS02001641        5.94      5.94      5.94      0.01         0.02
  YS02001641YS02001644        5.94      5.94      5.95      1.05         1.15
  YS02001647YS02001649        5.75      5.75      5.96      0.01         0.01
  YS02006553YS02006556        1.09      1.09      1.51      0.01         0.01
  YS02006556YS02006558        1.29      1.29      1.58      0.01         0.01
  YS02001907YS02006553        2.04      2.04      2.24      0.01         0.01
  YS02006558YS02006561        0.64      1.05      0.64      1.89         0.64
  YS02001633YS02163601        5.93      5.93      5.96      0.01         0.01
  YS02001644YS02001647        5.75      5.75      5.95      0.01         0.01
  YS02001745YS02001748        0.01      0.01      5.26      0.01         0.01
  YS02001748YS02001751        5.34      5.34      5.50      0.01         0.01
  YS02001751YS02001754        5.50      5.50      5.73      0.01         0.01
  YS02001754YS02001757        5.75      5.75      6.04      0.01         0.01
  YS02001882YS02001884        0.47      0.47      0.55      0.01         0.01
  YS02001884YS02001887        0.65      0.65      0.70      0.01         0.01
  YS02001890YS02001895        0.40      0.40      0.84      0.01         0.01
  YS02001895YS02001898        0.36      0.36      0.40      0.01         0.01
  YS02001898YS02001901        0.42      0.42      0.64      0.01         0.01
  YS02001901YS02001904        0.60      0.60      0.64      0.01         0.01
  YS02001904YS02001907        0.60      0.60      1.54      0.01         0.01
  YS02001887YS02001890        0.75      0.75      0.79      0.01         0.01
  YS02001652YS02001649        5.76      5.76      5.96      0.01         0.01
  YS02001655YS02001652        5.58      5.58      5.75      0.01         0.01
  YS02001658YS02001655        5.30      5.30      5.58      0.01         0.01
  YS02001661YS02001658        0.20      0.20      5.30      0.01         0.01
  YS02001664YS02001661        0.01      0.01      1.15      0.01         0.01
  YS02001793JiankangQianchi        2.88      2.88      3.79      0.01         0.01
  YS02001757CaochengTiaoxuchi        5.17      5.17      6.04      0.01         0.01
  3                           0.01      0.01      0.01      0.01         0.01
  
  
  ***************
  Pumping Summary
  ***************
  
  ---------------------------------------------------------------------------------------------------------
                                                  Min       Avg       Max     Total     Power    % Time Off
                        Percent   Number of      Flow      Flow      Flow    Volume     Usage    Pump Curve
  Pump                 Utilized   Start-Ups       LPS       LPS       LPS  10^6 ltr     Kw-hr    Low   High
  ---------------------------------------------------------------------------------------------------------
  CC-Pump-1               40.75           2      0.00    182.40    200.00     2.091      3.22    0.0   16.8
  CC-Pump-2               21.28           1      0.00    180.00    200.00     1.080      0.86    0.0    0.0
  JK-Pump-1               76.60           2      0.00    190.41    300.00     3.102     32.28    0.0    0.0
  JK-Pump-2               82.98           2      0.00    194.33    300.00     3.537     40.81    0.0    0.0
  XR-Pump-1               38.29           3      0.00     78.68     95.00     0.855      5.80    0.0    0.0
  XR-Pump-2               53.19           1      0.00     81.39     95.00     1.283     16.09    0.0    0.0
  XR-Pump-3               82.97           3      0.00     84.91     95.00     2.052     19.26    0.0    0.0
  XR-Pump-4               82.97           3      0.00     88.40     95.00     2.109     20.38    0.0    0.0
  

  Analysis begun on:  Mon Dec 20 12:22:53 2021
  Analysis ended on:  Mon Dec 20 12:22:57 2021
  Total elapsed time: 00:00:04