
  EPA STORM WATER MANAGEMENT MODEL - VERSION 5.1 (Build 5.3.0.dev0)
  --------------------------------------------------------------

  WARNING 04: minimum elevation drop used for Conduit WS02004404WS02004405
  WARNING 03: negative offset ignored for Link YS02001904YS02001907
  
  *********************************************************
  NOTE: The summary statistics displayed in this report are
  based on results found at every computational time step,  
  not just on results from each reporting time step.
  *********************************************************
  
  ****************
  Analysis Options
  ****************
  Flow Units ............... LPS
  Process Models:
    Rainfall/Runoff ........ YES
    RDII ................... NO
    Snowmelt ............... NO
    Groundwater ............ NO
    Flow Routing ........... YES
    Ponding Allowed ........ NO
    Water Quality .......... NO
  Infiltration Method ...... HORTON
  Flow Routing Method ...... DYNWAVE
  Surcharge Method ......... EXTRAN
  Starting Date ............ 08/28/2015 08:00:00
  Ending Date .............. 08/28/2015 15:50:00
  Antecedent Dry Days ...... 8.0
  Report Time Step ......... 00:01:00
  Wet Time Step ............ 00:01:00
  Dry Time Step ............ 00:01:00
  Routing Time Step ........ 5.00 sec
  Variable Time Step ....... YES
  Maximum Trials ........... 8
  Number of Threads ........ 4
  Head Tolerance ........... 0.001500 m
  
  
  **************************        Volume         Depth
  Runoff Quantity Continuity     hectare-m            mm
  **************************     ---------       -------
  Total Precipitation ......         3.868         8.469
  Evaporation Loss .........         0.000         0.000
  Infiltration Loss ........         0.985         2.157
  Surface Runoff ...........         1.916         4.194
  Final Storage ............         0.968         2.119
  Continuity Error (%) .....        -0.017
  
  
  **************************        Volume        Volume
  Flow Routing Continuity        hectare-m      10^6 ltr
  **************************     ---------     ---------
  Dry Weather Inflow .......         0.616         6.165
  Wet Weather Inflow .......         1.915        19.148
  Groundwater Inflow .......         0.000         0.000
  RDII Inflow ..............         0.000         0.000
  External Inflow ..........         0.102         1.024
  External Outflow .........         1.745        17.451
  Flooding Loss ............         0.445         4.449
  Evaporation Loss .........         0.000         0.000
  Exfiltration Loss ........         0.000         0.000
  Initial Stored Volume ....         0.076         0.761
  Final Stored Volume ......         0.635         6.346
  Continuity Error (%) .....        -4.240
  
  
  *************************
  Highest Continuity Errors
  *************************
  Node YS02001774 (40.25%)
  Node HS02004842 (20.89%)
  Node JK-storage (-20.46%)
  Node YS02001884 (14.14%)
  Node YSB1171 (4.66%)
  
  
  ***************************
  Time-Step Critical Elements
  ***************************
  Link 3 (48.17%)
  Link WS02006252WS02006251 (44.44%)
  Link WS02006238WS02006235 (1.91%)
  Link WS02006280WS02006229 (1.58%)
  
  
  ********************************
  Highest Flow Instability Indexes
  ********************************
  Link WS02006113WS02006111 (45)
  Link YS02001774YS02001770 (28)
  Link YS02001779YS02001774 (28)
  Link YS02001765YS02001762 (23)
  Link YS02001629YS02163301 (23)
  
  
  *************************
  Routing Time Step Summary
  *************************
  Minimum Time Step           :     0.50 sec
  Average Time Step           :     0.91 sec
  Maximum Time Step           :     5.00 sec
  Percent in Steady State     :    -0.00
  Average Iterations per Step :     4.01
  Percent Not Converging      :    16.68
  
  
  ***************************
  Subcatchment Runoff Summary
  ***************************
  
  ------------------------------------------------------------------------------------------------------------------------------
                            Total      Total      Total      Total     Imperv       Perv      Total       Total     Peak  Runoff
                           Precip      Runon       Evap      Infil     Runoff     Runoff     Runoff      Runoff   Runoff   Coeff
  Subcatchment                 mm         mm         mm         mm         mm         mm         mm    10^6 ltr      LPS
  ------------------------------------------------------------------------------------------------------------------------------
  sub0                       8.47       0.00       0.00       0.59       6.61       0.00       6.61        0.01     1.03   0.781
  sub1                       8.47       0.00       0.00       0.93       6.28       0.00       6.28        0.04     7.43   0.741
  sub2                       8.47       0.00       0.00       3.13       4.43       0.00       4.43        0.04     7.08   0.523
  sub3                       8.47       0.00       0.00       3.13       4.39       0.00       4.39        0.10    15.91   0.518
  sub4                       8.47       0.00       0.00       0.93       6.13       0.00       6.13        0.13    19.23   0.724
  sub5                       8.47       0.00       0.00       0.59       6.56       0.00       6.56        0.07    13.22   0.775
  sub7                       8.47       0.00       0.00       0.76       6.45       0.00       6.45        0.02     4.04   0.762
  sub8                       8.47       0.00       0.00       0.76       6.44       0.00       6.44        0.04     7.54   0.761
  sub9                       8.47       0.00       0.00       0.76       6.44       0.00       6.44        0.03     5.65   0.760
  sub10                      8.47       0.00       0.00       0.68       6.50       0.00       6.50        0.07    12.87   0.767
  sub11                      8.47       0.00       0.00       0.68       6.52       0.00       6.52        0.08    13.93   0.769
  sub12                      8.47       0.00       0.00       1.10       6.18       0.00       6.18        0.05    10.23   0.730
  sub14                      8.47       0.00       0.00       0.76       6.44       0.00       6.44        0.06    11.15   0.760
  sub15                      8.47       0.00       0.00       2.54       4.95       0.00       4.95        0.09    15.40   0.584
  sub16                      8.47       0.00       0.00       2.79       4.76       0.00       4.76        0.05     9.37   0.561
  sub17                      8.47       0.00       0.00       2.71       4.82       0.00       4.82        0.04     7.75   0.570
  sub22                      8.47       0.00       0.00       3.64       4.04       0.00       4.04        0.26    47.08   0.477
  sub23                      8.47       0.00       0.00       3.13       4.46       0.00       4.46        0.21    39.46   0.527
  sub60                      8.47       0.00       0.00       1.02       4.75       0.00       4.75        1.44   149.28   0.561
  sub61                      8.47       0.00       0.00       1.44       4.95       0.00       4.95        1.53   180.35   0.585
  sub62                      8.47       0.00       0.00       0.68       5.35       0.00       5.35        1.64   187.08   0.631
  sub63                      8.47       0.00       0.00       2.46       4.37       0.00       4.37        1.32   164.01   0.516
  sub64                      8.47       0.00       0.00       1.27       4.55       0.00       4.55        1.38   141.99   0.537
  sub65                      8.47       0.00       0.00       1.10       4.62       0.00       4.62        1.42   144.28   0.545
  sub66                      8.47       0.00       0.00       2.46       3.94       0.00       3.94        1.21   129.20   0.465
  sub67                      8.47       0.00       0.00       0.68       5.75       0.00       5.75        1.78   226.25   0.679
  sub68                      8.47       0.00       0.00       1.19       5.24       0.00       5.24        1.61   196.27   0.618
  sub69                      8.47       0.00       0.00       1.27       5.53       0.00       5.53        1.29   176.57   0.653
  sub70                      8.47       5.64       0.00       4.80       7.11       0.00       7.11        1.63   167.69   0.504
  sub71                      8.47       0.00       0.00       0.68       5.16       0.00       5.16        1.22   132.38   0.610
  sub72                      8.47       0.00       0.00       0.59       3.87       0.00       3.87        0.79    64.98   0.457
  sub73                      8.47       6.92       0.00       5.23       7.51       0.00       7.51        1.76   149.38   0.488
  sub74                      8.47       0.00       0.00       6.35       1.66       0.00       1.66        0.66    93.55   0.196
  
  
  ******************
  Node Depth Summary
  ******************
  
  ---------------------------------------------------------------------------------
                                 Average  Maximum  Maximum  Time of Max    Reported
                                   Depth    Depth      HGL   Occurrence   Max Depth
  Node                 Type       Meters   Meters   Meters  days hr:min      Meters
  ---------------------------------------------------------------------------------
  WS02001211           JUNCTION     0.65     0.72     5.56     0  03:05        0.72
  WS02001212           JUNCTION     0.38     0.44     5.51     0  03:04        0.44
  WS02001213           JUNCTION     0.61     0.70     5.46     0  03:02        0.70
  WS02003069           JUNCTION     0.43     0.54     5.12     0  03:01        0.54
  WS02003072           JUNCTION     0.49     0.60     4.97     0  03:02        0.60
  WS02003073           JUNCTION     0.30     0.37     4.43     0  03:03        0.37
  WS02003060           JUNCTION     0.38     0.48     5.41     0  03:00        0.48
  WS02003066           JUNCTION     0.23     0.30     5.85     0  02:31        0.30
  WS02003059           JUNCTION     0.67     0.76     5.45     0  03:03        0.76
  WS02003067           JUNCTION     0.56     0.70     6.02     0  02:31        0.70
  WS02004401           JUNCTION     0.66     0.84     6.84     0  02:28        0.84
  WS02004402           JUNCTION     0.69     0.87     6.83     0  02:28        0.87
  WS02004403           JUNCTION     0.71     0.89     6.82     0  02:28        0.89
  WS02004404           JUNCTION     0.78     0.96     6.81     0  02:28        0.96
  WS02004406           JUNCTION     0.79     0.95     6.78     0  02:28        0.95
  WS02004409           JUNCTION     0.47     0.66     6.43     0  02:30        0.66
  WS02004410           JUNCTION     0.49     0.68     6.40     0  02:30        0.68
  WS02004411           JUNCTION     0.51     0.69     6.37     0  02:30        0.69
  WS02004412           JUNCTION     0.53     0.69     6.33     0  02:31        0.69
  WS02004413           JUNCTION     0.68     0.85     6.32     0  02:31        0.85
  WS02004405           JUNCTION     0.78     0.95     6.80     0  02:28        0.95
  WS02006109           JUNCTION     0.73     0.96     7.57     0  02:26        0.96
  WS02006110           JUNCTION     0.73     0.91     7.50     0  02:26        0.91
  WS02006111           JUNCTION     0.21     0.28     6.99     0  02:27        0.28
  WS02006112           JUNCTION     0.82     1.04     6.93     0  02:59        1.04
  WS02006113           JUNCTION     0.33     0.45     7.34     0  02:26        0.45
  WS02006115           JUNCTION     0.55     0.74     6.88     0  02:28        0.74
  WS02006116           JUNCTION     0.63     0.82     6.86     0  02:28        0.82
  WS02006230           JUNCTION     0.69     0.99     7.73     0  02:26        0.99
  WS02006231           JUNCTION     0.46     0.65     7.77     0  02:25        0.65
  WS02006232           JUNCTION     0.59     0.77     7.81     0  02:25        0.77
  WS02006234           JUNCTION     0.50     0.70     7.85     0  02:25        0.70
  WS02006235           JUNCTION     0.53     0.72     7.88     0  02:47        0.72
  WS02006238           JUNCTION     0.55     0.75     7.89     0  02:47        0.75
  WS02006240           JUNCTION     0.43     0.64     7.94     0  02:25        0.64
  WS02006242           JUNCTION     0.48     0.70     7.96     0  02:26        0.70
  WS02006243           JUNCTION     0.35     0.57     7.99     0  02:26        0.57
  WS02006245           JUNCTION     0.31     0.53     8.02     0  02:27        0.53
  WS02006247           JUNCTION     0.32     0.54     8.04     0  02:27        0.54
  WS02006248           JUNCTION     0.28     0.47     8.06     0  02:27        0.47
  WS02006249           JUNCTION     0.31     0.49     8.09     0  02:27        0.49
  WS02006239           JUNCTION     0.50     0.71     7.92     0  02:48        0.71
  WS02006251           JUNCTION     0.29     0.47     8.14     0  02:28        0.47
  WS02006252           JUNCTION     0.25     0.35     8.59     0  02:01        0.35
  WS02006253           JUNCTION     0.32     0.50     8.14     0  02:28        0.50
  WS02006256           JUNCTION     1.07     2.35     9.28     0  00:00        1.19
  WS02004138           JUNCTION     0.15     0.17     7.42     0  00:00        0.17
  WS02004407           JUNCTION     0.21     0.29     6.61     0  02:29        0.29
  WS02006228           JUNCTION     0.73     0.99     7.64     0  02:26        0.99
  WS02006229           JUNCTION     0.70     0.99     7.68     0  02:26        0.99
  WS02006280           JUNCTION     0.07     0.14     8.41     0  02:27        0.14
  WS02006284           JUNCTION     0.36     0.48     8.88     0  02:27        0.48
  WS02006287           JUNCTION     0.10     0.21     9.16     0  02:27        0.21
  WSF200               JUNCTION     0.21     0.31     5.54     0  02:27        0.31
  HS02004901           JUNCTION     0.12     0.22    10.04     0  02:25        0.22
  HS02004881           JUNCTION     0.01     0.02     9.05     0  02:26        0.02
  HS02004876           JUNCTION     0.05     0.10     9.13     0  02:25        0.10
  HS02004870           JUNCTION     0.01     0.04     9.33     0  02:26        0.04
  HS02004862           JUNCTION     0.02     0.05     9.43     0  02:27        0.05
  HS02004856           JUNCTION     0.08     0.11     9.53     0  02:26        0.11
  HS02004852           JUNCTION     0.01     0.03     9.54     0  02:27        0.03
  HS02004848           JUNCTION     0.01     0.03     9.63     0  02:26        0.03
  HS02004842           JUNCTION     0.33     0.36     9.63     0  02:26        0.36
  HS02004837           JUNCTION     0.03     0.05     9.63     0  02:26        0.05
  HS02004830           JUNCTION     0.04     0.06     9.53     0  02:26        0.06
  HS02004824           JUNCTION     0.02     0.04     9.45     0  02:27        0.04
  HS02004817           JUNCTION     0.44     0.53     9.37     0  02:27        0.53
  HS02004807           JUNCTION     0.12     0.20     9.37     0  02:27        0.20
  HS02004802           JUNCTION     0.16     0.24     9.37     0  02:27        0.24
  HS02004799           JUNCTION     0.12     0.25     9.46     0  02:25        0.25
  HS02004792           JUNCTION     0.03     0.09     9.62     0  02:25        0.09
  HS02004788           JUNCTION     0.03     0.07     9.97     0  02:26        0.07
  HS02004785           JUNCTION     0.05     0.13    10.03     0  02:25        0.13
  HS02004777           JUNCTION     0.15     0.24    10.04     0  02:25        0.24
  HS02004770           JUNCTION     0.12     0.21    10.04     0  02:25        0.21
  HS02004480           JUNCTION     0.08     0.19     9.43     0  02:26        0.19
  HS02004479           JUNCTION     0.12     0.23     9.43     0  02:25        0.23
  HS02004478           JUNCTION     0.06     0.12     9.35     0  02:26        0.12
  YS02001745           JUNCTION     0.60     0.85     8.37     0  04:00        0.85
  YS02001748           JUNCTION     0.97     1.31     8.38     0  04:05        1.29
  YS02001751           JUNCTION     1.15     1.84     8.72     0  03:01        1.50
  YS02001754           JUNCTION     1.41     1.88     8.49     0  03:02        1.79
  YS02001762           JUNCTION     1.61     2.02     8.42     0  03:59        2.01
  YS02001765           JUNCTION     1.56     1.97     8.42     0  04:05        1.95
  YS02001767           JUNCTION     1.52     1.92     8.41     0  03:57        1.90
  YS02001770           JUNCTION     1.52     1.90     8.40     0  03:58        1.89
  YS02001774           JUNCTION     1.59     1.97     8.39     0  04:01        1.96
  YS02001779           JUNCTION     1.34     1.68     8.37     0  02:54        1.68
  YS02001882           JUNCTION     0.37     0.64     7.35     0  02:58        0.63
  YS02001884           JUNCTION     0.46     0.73     7.35     0  02:58        0.73
  YS02001759           JUNCTION     1.64     2.05     8.42     0  04:05        2.04
  YS02001887           JUNCTION     0.54     0.81     7.35     0  02:58        0.81
  YS02001890           JUNCTION     0.57     0.84     7.34     0  02:58        0.84
  YS02001898           JUNCTION     0.34     0.59     7.33     0  02:57        0.59
  YS02001901           JUNCTION     0.46     0.72     7.33     0  02:57        0.72
  YS02001904           JUNCTION     0.43     0.69     7.32     0  02:58        0.69
  YS02001907           JUNCTION     0.76     1.06     7.35     0  02:56        1.03
  YS02001910           JUNCTION     0.55     0.83     7.33     0  03:00        0.82
  YS02001915           JUNCTION     0.35     0.61     7.33     0  02:59        0.61
  YS02001918           JUNCTION     0.11     0.25     7.32     0  02:57        0.25
  YS02001619           JUNCTION     1.12     1.61     8.54     0  03:15        1.48
  YS02001629           JUNCTION     1.47     1.85     8.40     0  03:21        1.83
  YS02001641           JUNCTION     1.58     1.93     8.37     0  03:48        1.93
  YS02001644           JUNCTION     1.58     1.92     8.35     0  03:42        1.92
  YS02001652           JUNCTION     1.42     2.16     8.76     0  02:56        1.86
  YS02001655           JUNCTION     1.18     2.20     9.05     0  02:54        2.14
  YS02001920           JUNCTION     0.21     0.33     7.33     0  02:58        0.32
  YS02001923           JUNCTION     0.08     0.12     7.38     0  03:02        0.12
  YS02001926           JUNCTION     0.17     0.23     7.67     0  03:02        0.23
  YS02001929           JUNCTION     0.09     0.12     7.81     0  03:01        0.12
  YS02001658           JUNCTION     0.92     2.30     9.44     0  03:13        1.41
  YS02001661           JUNCTION     0.71     1.87     9.28     0  03:49        1.14
  YS02001664           JUNCTION     0.30     0.57     8.49     0  03:56        0.56
  YS02001622           JUNCTION     1.14     1.62     8.52     0  03:15        1.50
  YS02001633           JUNCTION     1.56     1.95     8.40     0  03:26        1.91
  YS02001649           JUNCTION     1.62     2.05     8.44     0  03:03        2.05
  YS02001757           JUNCTION     1.74     2.16     8.42     0  04:05        2.15
  YS02001895           JUNCTION     0.33     0.59     7.33     0  03:00        0.59
  YS02001625           JUNCTION     1.43     1.78     8.38     0  03:11        1.78
  YS02163301           JUNCTION     1.50     1.89     8.41     0  03:22        1.86
  YS02163601           JUNCTION     1.62     1.99     8.39     0  03:47        1.96
  YS02164001           JUNCTION     1.56     1.92     8.38     0  03:47        1.90
  YS02001647           JUNCTION     1.41     1.80     8.41     0  03:13        1.79
  YSB1154              JUNCTION     0.26     0.38     9.43     0  02:26        0.38
  YSB6556              JUNCTION     0.15     0.26     9.43     0  02:26        0.26
  YSB1174              JUNCTION     0.21     0.32     9.43     0  02:26        0.32
  YSB1171              JUNCTION     0.41     0.53     9.43     0  02:25        0.53
  YS02006553           JUNCTION     0.77     1.07     7.35     0  03:00        1.06
  YS02006561           JUNCTION     0.18     0.35     7.01     0  03:02        0.34
  YS02006556           JUNCTION     0.74     1.02     7.34     0  03:00        1.00
  YS02006558           JUNCTION     0.78     1.06     7.33     0  02:59        1.05
  YS02001783           JUNCTION     0.38     1.10     7.24     0  03:07        0.91
  YS02001784           JUNCTION     0.42     1.04     7.11     0  02:56        0.93
  YS02001786           JUNCTION     0.38     1.02     7.05     0  02:59        0.89
  YS02001788           JUNCTION     0.34     0.99     6.97     0  02:59        0.86
  YS02001790           JUNCTION     0.47     1.21     6.86     0  02:59        1.11
  YS02001791           JUNCTION     0.48     1.52     6.99     0  02:41        1.20
  YS02001793           JUNCTION     0.69     2.57     7.40     0  02:37        1.78
  WS02004139           JUNCTION     0.59     0.66     5.57     0  03:04        0.66
  WSC                  OUTFALL      0.29     0.37     1.04     0  03:03        0.37
  3                    OUTFALL      0.10     0.23     6.23     0  00:00        0.19
  4                    OUTFALL      0.00     0.00     7.00     0  00:00        0.00
  5                    OUTFALL      0.00     0.00     5.00     0  00:00        0.00
  JK-storage           STORAGE      2.61     5.80     6.60     0  02:44        5.80
  CC-storage           STORAGE      0.96     1.37     8.37     0  05:54        1.37
  XR-storage           STORAGE      6.68     7.72     5.72     0  03:02        7.72
  
  
  *******************
  Node Inflow Summary
  *******************
  
  -------------------------------------------------------------------------------------------------
                                  Maximum  Maximum                  Lateral       Total        Flow
                                  Lateral    Total  Time of Max      Inflow      Inflow     Balance
                                   Inflow   Inflow   Occurrence      Volume      Volume       Error
  Node                 Type           LPS      LPS  days hr:min    10^6 ltr    10^6 ltr     Percent
  -------------------------------------------------------------------------------------------------
  WS02001211           JUNCTION      7.35   293.24     0  03:23       0.207        6.99       0.415
  WS02001212           JUNCTION      0.00   293.93     0  03:23           0        6.96       0.208
  WS02001213           JUNCTION      0.00   294.53     0  03:22           0        6.95       0.294
  WS02003069           JUNCTION      0.32   825.21     0  03:01     0.00902        14.1       0.146
  WS02003072           JUNCTION      0.00   825.20     0  03:01           0        14.1       0.194
  WS02003073           JUNCTION      1.82   827.02     0  03:02      0.0514        14.1       0.207
  WS02003060           JUNCTION     16.53   824.94     0  03:00       0.466        14.2       0.141
  WS02003066           JUNCTION      0.00   528.64     0  02:31           0        6.79       0.046
  WS02003059           JUNCTION      0.00   295.61     0  03:21           0        6.94       0.438
  WS02003067           JUNCTION      0.00   528.61     0  02:31           0         6.8       0.103
  WS02004401           JUNCTION      0.00   529.32     0  02:27           0        6.98       0.236
  WS02004402           JUNCTION      0.00   529.24     0  02:28           0        6.96       0.229
  WS02004403           JUNCTION      0.00   529.13     0  02:28           0        6.94       0.213
  WS02004404           JUNCTION      0.16   529.26     0  02:28     0.00457        6.93       0.166
  WS02004406           JUNCTION      0.00   529.28     0  02:28           0        6.91       0.406
  WS02004409           JUNCTION      0.00   529.24     0  02:29           0        6.87       0.148
  WS02004410           JUNCTION      0.00   529.01     0  02:29           0        6.86       0.177
  WS02004411           JUNCTION      0.00   528.82     0  02:30           0        6.85       0.189
  WS02004412           JUNCTION      0.00   528.71     0  02:30           0        6.84       0.216
  WS02004413           JUNCTION      0.00   528.64     0  02:30           0        6.82       0.338
  WS02004405           JUNCTION      0.04   529.27     0  02:28     0.00107        6.92       0.252
  WS02006109           JUNCTION      1.23   522.44     0  02:26      0.0347        7.03       0.267
  WS02006110           JUNCTION      0.00   522.45     0  02:26           0        7.01       0.217
  WS02006111           JUNCTION      0.00   542.43     0  02:26           0        6.99       0.040
  WS02006112           JUNCTION      7.75   533.19     0  02:26      0.0414        7.03       0.323
  WS02006113           JUNCTION      0.00   522.66     0  02:26           0           7       0.089
  WS02006115           JUNCTION      0.00   529.99     0  02:26           0           7       0.201
  WS02006116           JUNCTION      0.00   529.49     0  02:27           0        6.99       0.201
  WS02006230           JUNCTION     10.28   342.42     0  03:12        0.29        5.71       0.188
  WS02006231           JUNCTION      0.00   330.46     0  03:12           0        5.43       0.118
  WS02006232           JUNCTION      0.00   330.38     0  03:12           0        5.44       0.229
  WS02006234           JUNCTION      0.00   329.33     0  03:12           0        5.45       0.070
  WS02006235           JUNCTION      0.00   328.72     0  03:12           0        5.48       0.146
  WS02006238           JUNCTION      0.00   275.93     0  02:30           0        2.99       0.159
  WS02006240           JUNCTION      0.00   266.42     0  02:30           0        2.97       0.169
  WS02006242           JUNCTION      0.00   262.01     0  02:31           0        2.97       0.188
  WS02006243           JUNCTION      0.00   255.94     0  02:31           0        2.96      -0.038
  WS02006245           JUNCTION      0.00   252.49     0  02:31           0        2.96       0.057
  WS02006247           JUNCTION      0.00   249.50     0  02:32           0        2.96       0.005
  WS02006248           JUNCTION      0.00   246.94     0  02:32           0        2.96      -0.026
  WS02006249           JUNCTION      0.00   244.22     0  02:32           0        2.96       0.050
  WS02006239           JUNCTION      0.00   271.96     0  02:30           0        2.98       0.203
  WS02006251           JUNCTION      0.08   241.99     0  02:32     0.00217        2.96      -0.000
  WS02006252           JUNCTION      0.00   200.00     0  02:01           0        2.73       0.002
  WS02006253           JUNCTION      1.03    41.74     0  02:26     0.00535       0.235      -0.078
  WS02006256           JUNCTION      0.00   600.00     0  00:00           0        5.86       0.038
  WS02004138           JUNCTION      0.00   285.00     0  00:00           0        6.81       0.063
  WS02004407           JUNCTION      0.00   529.26     0  02:29           0        6.88       0.069
  WS02006228           JUNCTION      0.00   521.21     0  02:26           0        7.01       0.179
  WS02006229           JUNCTION      0.00   521.19     0  02:26           0        7.02       0.127
  WS02006280           JUNCTION      0.00   204.81     0  02:27           0        1.31       0.005
  WS02006284           JUNCTION      0.10   204.80     0  02:27      0.0027        1.31       0.087
  WS02006287           JUNCTION      0.00   204.70     0  02:27           0        1.31       0.053
  WSF200               JUNCTION      0.00   528.66     0  02:31           0        6.79       0.039
  HS02004901           JUNCTION      9.37     9.37     0  02:23      0.0498      0.0501       3.647
  HS02004881           JUNCTION      4.04    40.76     0  02:26      0.0217        0.23       0.117
  HS02004876           JUNCTION      7.43    36.75     0  02:26      0.0417       0.209       0.259
  HS02004870           JUNCTION      7.54    29.42     0  02:26      0.0411       0.167       0.066
  HS02004862           JUNCTION      7.28    22.06     0  02:26      0.0469       0.126       0.137
  HS02004856           JUNCTION      5.65    14.84     0  02:26       0.031      0.0805       1.828
  HS02004852           JUNCTION      0.00     9.33     0  02:26           0      0.0496       0.109
  HS02004848           JUNCTION     15.91    15.91     0  02:26      0.0988      0.0988       0.048
  HS02004842           JUNCTION      0.00     6.79     0  02:52           0      0.0622      26.413
  HS02004837           JUNCTION     19.22    25.66     0  02:25       0.251         0.3       0.273
  HS02004830           JUNCTION      0.15    25.80     0  02:26     0.00423        0.29       0.426
  HS02004824           JUNCTION     19.28    44.91     0  02:27       0.129       0.418       0.129
  HS02004817           JUNCTION      0.60    45.51     0  02:27      0.0169       0.435       3.988
  HS02004807           JUNCTION     13.93    58.94     0  02:27      0.0757       0.494       0.884
  HS02004802           JUNCTION      0.00    59.00     0  02:28           0       0.491       0.813
  HS02004799           JUNCTION     11.15   123.20     0  02:25      0.0613       0.713       0.360
  HS02004792           JUNCTION     47.36   112.13     0  02:24       0.263       0.652       0.064
  HS02004788           JUNCTION     17.07    65.26     0  02:25       0.132        0.39       0.100
  HS02004785           JUNCTION      0.15    48.39     0  02:25     0.00423       0.259       0.188
  HS02004777           JUNCTION      0.03    48.40     0  02:24    0.000846        0.26       2.037
  HS02004770           JUNCTION     39.46    48.64     0  02:23       0.213       0.261       1.203
  HS02004480           JUNCTION      0.00   146.07     0  02:25           0       0.837       0.127
  HS02004479           JUNCTION      0.00    23.09     0  02:27           0       0.137       0.537
  HS02004478           JUNCTION      0.00   204.69     0  02:26           0        1.31       0.032
  YS02001745           JUNCTION    149.28   262.85     0  03:11        1.44        1.45       0.788
  YS02001748           JUNCTION      0.04   375.22     0  03:11     0.00127        1.45       1.617
  YS02001751           JUNCTION      0.01   364.65     0  02:55     0.00031        1.41       1.650
  YS02001754           JUNCTION      0.26   211.90     0  03:07     0.00733        1.39       1.779
  YS02001762           JUNCTION      0.00   205.05     0  02:57           0        1.56       1.366
  YS02001765           JUNCTION      0.00   202.09     0  02:57           0        1.56       1.581
  YS02001767           JUNCTION      0.54   199.38     0  02:57      0.0151        1.59       2.313
  YS02001770           JUNCTION    187.24   196.12     0  02:57        1.65        1.66       1.948
  YS02001774           JUNCTION      0.00    32.96     0  01:57           0      0.0624      67.367
  YS02001779           JUNCTION      0.01    19.39     0  02:53    0.000141      0.0293     106.756
  YS02001882           JUNCTION      0.00    12.37     0  02:55           0      0.0122      19.035
  YS02001884           JUNCTION      0.00    15.99     0  02:55           0      0.0386      16.465
  YS02001759           JUNCTION    180.39   383.03     0  02:57        1.53        3.06       0.755
  YS02001887           JUNCTION    226.70   239.38     0  02:59        1.79        1.81       0.433
  YS02001890           JUNCTION      0.00   238.28     0  03:02           0        1.77       0.482
  YS02001898           JUNCTION      0.00   247.17     0  03:02           0        1.76       0.154
  YS02001901           JUNCTION      0.00   257.85     0  03:02           0        1.76       0.353
  YS02001904           JUNCTION      0.00   248.01     0  03:01           0        1.75       0.325
  YS02001907           JUNCTION      0.00   469.83     0  03:01           0        3.82       0.603
  YS02001910           JUNCTION      0.00   228.15     0  03:01           0        2.08       0.528
  YS02001915           JUNCTION    132.40   209.54     0  03:02        1.22        2.08       0.254
  YS02001918           JUNCTION      0.00    71.90     0  03:02           0       0.866       0.176
  YS02001619           JUNCTION    129.20   129.20     0  03:01        1.21        1.21       0.977
  YS02001629           JUNCTION      0.00   203.15     0  02:52           0        1.13       2.527
  YS02001641           JUNCTION      0.00   319.04     0  03:04           0        2.45       0.872
  YS02001644           JUNCTION    142.03   456.21     0  03:04        1.38        4.78       0.551
  YS02001652           JUNCTION      0.00   230.62     0  03:06           0        1.27       1.879
  YS02001655           JUNCTION      0.15   389.18     0  02:50     0.00434        1.29       1.831
  YS02001920           JUNCTION      2.87    67.64     0  03:02      0.0809       0.868       0.286
  YS02001923           JUNCTION      0.04    64.78     0  03:02     0.00106       0.788       0.052
  YS02001926           JUNCTION      0.05    64.97     0  03:01     0.00147       0.789       0.356
  YS02001929           JUNCTION     64.98    64.98     0  03:01       0.788       0.788       0.051
  YS02001658           JUNCTION      0.00   552.36     0  03:12           0        1.39       1.392
  YS02001661           JUNCTION      0.00   473.58     0  03:47           0        2.05       0.415
  YS02001664           JUNCTION    164.01   394.68     0  03:47        1.32        1.98       0.336
  YS02001622           JUNCTION      0.00   160.63     0  02:58           0         1.2       2.678
  YS02001633           JUNCTION    144.48   319.75     0  03:04        1.43         2.5       1.304
  YS02001649           JUNCTION      0.00   610.52     0  02:57           0           4       0.935
  YS02001757           JUNCTION      0.00  1103.39     0  03:02           0        7.41       1.258
  YS02001895           JUNCTION      0.00   239.64     0  03:02           0        1.76       0.240
  YS02001625           JUNCTION      0.00   203.86     0  02:50           0        1.16       3.433
  YS02163301           JUNCTION      0.00   180.66     0  03:04           0         1.1       2.230
  YS02163601           JUNCTION      0.11   319.53     0  03:04      0.0031        2.47       1.236
  YS02164001           JUNCTION      0.00   319.56     0  03:04           0        2.45       0.831
  YS02001647           JUNCTION      0.00   455.82     0  03:04           0        3.07       0.921
  YSB1154              JUNCTION     13.22    13.22     0  02:24      0.0743      0.0752       1.964
  YSB6556              JUNCTION      0.00    13.14     0  02:25           0      0.0759       1.671
  YSB1174              JUNCTION     10.23    10.23     0  02:22       0.054      0.0546       2.413
  YSB1171              JUNCTION      0.00    23.08     0  02:25           0       0.136       4.884
  YS02006553           JUNCTION      0.00   455.44     0  03:02           0        3.81       0.385
  YS02006561           JUNCTION      0.00   693.06     0  03:00           0        5.39       0.000
  YS02006556           JUNCTION      0.00   459.07     0  03:01           0        3.81       0.282
  YS02006558           JUNCTION    197.15   691.97     0  02:59        1.63        5.42       0.101
  YS02001783           JUNCTION      0.00   644.76     0  03:02           0        5.39       0.034
  YS02001784           JUNCTION      1.06   646.06     0  03:02      0.0299        5.42       0.058
  YS02001786           JUNCTION      0.06   645.59     0  03:02     0.00159        5.42       0.050
  YS02001788           JUNCTION      0.07   644.45     0  03:02       0.002        5.42       0.032
  YS02001790           JUNCTION      0.15   644.51     0  03:02     0.00437        5.42       0.040
  YS02001791           JUNCTION      0.00   644.63     0  03:02           0        5.42       0.018
  YS02001793           JUNCTION      0.00   644.81     0  03:02           0        5.42       0.008
  WS02004139           JUNCTION      0.32   290.33     0  00:00     0.00905        6.82       0.479
  WSC                  OUTFALL       0.00   827.02     0  03:03           0        14.1       0.000
  3                    OUTFALL       0.00   597.65     0  00:00           0        3.34       0.000
  4                    OUTFALL       0.00     0.00     0  00:00           0           0       0.000 ltr
  5                    OUTFALL       0.00     0.00     0  00:00           0           0       0.000 ltr
  JK-storage           STORAGE       0.00   885.19     0  02:36           0        5.57     -16.987
  CC-storage           STORAGE       0.00  1104.26     0  03:02           0        6.63       0.989
  XR-storage           STORAGE     442.93   442.93     0  03:01        8.07        8.67      -0.001
  
  
  **********************
  Node Surcharge Summary
  **********************
  
  Surcharging occurs when water rises above the top of the highest conduit.
  ---------------------------------------------------------------------
                                               Max. Height   Min. Depth
                                   Hours       Above Crown    Below Rim
  Node                 Type      Surcharged         Meters       Meters
  ---------------------------------------------------------------------
  WS02006109           JUNCTION        1.41          0.136        1.684
  WS02006110           JUNCTION        0.08          0.002        1.848
  WS02006112           JUNCTION        0.94          0.042        1.638
  WS02006232           JUNCTION        1.16          0.070        1.410
  WS02006235           JUNCTION        0.60          0.010        1.280
  WS02006238           JUNCTION        0.82          0.025        1.405
  WS02006256           JUNCTION        0.01          1.050        0.000
  WS02006228           JUNCTION        1.38          0.161        2.039
  YS02001748           JUNCTION        4.33          0.228        0.962
  YS02001751           JUNCTION        4.76          0.839        0.361
  YS02001754           JUNCTION        5.17          0.828        0.322
  YS02001762           JUNCTION        5.50          1.018        0.132
  YS02001765           JUNCTION        5.47          0.966        0.134
  YS02001767           JUNCTION        5.43          0.922        0.108
  YS02001770           JUNCTION        5.41          0.873        0.047
  YS02001774           JUNCTION        5.49          0.968        0.082
  YS02001779           JUNCTION        5.14          0.680        0.000
  YS02001759           JUNCTION        5.53          1.055        0.155
  YS02001907           JUNCTION        0.25          0.046        0.904
  YS02001619           JUNCTION        4.71          0.606        0.004
  YS02001629           JUNCTION        4.72          0.470        0.000
  YS02001641           JUNCTION        5.48          0.933        0.167
  YS02001644           JUNCTION        5.48          0.920        0.000
  YS02001652           JUNCTION        5.24          1.130        0.000
  YS02001655           JUNCTION        4.78          1.200        0.000
  YS02001658           JUNCTION        4.34          1.300        0.000
  YS02001661           JUNCTION        0.06          0.803        0.587
  YS02001622           JUNCTION        4.80          0.620        0.000
  YS02001633           JUNCTION        5.45          0.928        0.132
  YS02001649           JUNCTION        5.51          1.050        0.000
  YS02001757           JUNCTION        5.64          1.161        0.049
  YS02001625           JUNCTION        5.31          0.780        0.000
  YS02163301           JUNCTION        5.42          0.894        0.136
  YS02163601           JUNCTION        5.51          0.991        0.089
  YS02164001           JUNCTION        5.46          0.924        0.176
  YS02001647           JUNCTION        5.27          0.803        0.097
  YS02006553           JUNCTION        0.36          0.070        1.120
  YS02001783           JUNCTION        0.21          0.296        1.304
  YS02001784           JUNCTION        0.44          0.240        1.250
  YS02001786           JUNCTION        0.23          0.216        1.214
  YS02001788           JUNCTION        0.14          0.191        1.289
  YS02001790           JUNCTION        1.75          0.413        0.744
  YS02001791           JUNCTION        1.89          0.720        1.200
  YS02001793           JUNCTION        2.11          1.570        1.030
  
  
  *********************
  Node Flooding Summary
  *********************
  
  Flooding refers to all water that overflows a node, whether it ponds or not.
  --------------------------------------------------------------------------
                                                             Total   Maximum
                                 Maximum   Time of Max       Flood    Ponded
                        Hours       Rate    Occurrence      Volume     Depth
  Node                 Flooded       LPS   days hr:min    10^6 ltr    Meters
  --------------------------------------------------------------------------
  WS02006256              0.01    406.11      0  00:00       0.001     0.000
  YS02001779              1.36      9.34      0  04:01       0.008     0.000
  YS02001629              0.01     19.48      0  03:22       0.000     0.000
  YS02001644              4.06    414.54      0  04:10       2.657     0.000
  YS02001652              0.01     27.66      0  02:56       0.000     0.000
  YS02001655              0.01    151.84      0  03:08       0.000     0.000
  YS02001658              0.01    146.53      0  03:14       0.000     0.000
  YS02001622              0.01     27.72      0  03:15       0.000     0.000
  YS02001649              0.01     21.81      0  03:57       0.000     0.000
  YS02001625              0.03     15.10      0  03:22       0.000     0.000
  JK-storage              1.42    344.70      0  03:02       0.854     0.000
  XR-storage              4.36    153.18      0  03:02       0.928     0.000
  
  
  **********************
  Storage Volume Summary
  **********************
  
  --------------------------------------------------------------------------------------------------
                         Average     Avg  Evap Exfil       Maximum     Max    Time of Max    Maximum
                          Volume    Pcnt  Pcnt  Pcnt        Volume    Pcnt     Occurrence    Outflow
  Storage Unit           1000 m3    Full  Loss  Loss       1000 m3    Full    days hr:min        LPS
  --------------------------------------------------------------------------------------------------
  JK-storage               0.131      45     0     0         0.291     100       0  02:44     600.00
  CC-storage               2.681      17     0     0         3.809      24       0  05:54     200.00
  XR-storage               0.801      86     0     0         0.926     100       0  03:02     285.00
  
  
  ***********************
  Outfall Loading Summary
  ***********************
  
  -----------------------------------------------------------
                         Flow       Avg       Max       Total
                         Freq      Flow      Flow      Volume
  Outfall Node           Pcnt       LPS       LPS    10^6 ltr
  -----------------------------------------------------------
  WSC                   99.99    564.54    827.02      14.114
  3                     94.29    166.82    597.65       3.336
  4                      0.00      0.00      0.00       0.000
  5                      0.00      0.00      0.00       0.000
  -----------------------------------------------------------
  System                48.57    731.35   1043.52      17.451
  
  
  ********************
  Link Flow Summary
  ********************
  
  -----------------------------------------------------------------------------
                                 Maximum  Time of Max   Maximum    Max/    Max/
                                  |Flow|   Occurrence   |Veloc|    Full    Full
  Link                 Type          LPS  days hr:min     m/sec    Flow   Depth
  -----------------------------------------------------------------------------
  WS02003066WSF200     CONDUIT    528.66     0  02:31      2.76    0.09    0.23
  WS02006287WS02006284 CONDUIT    204.71     0  02:27      1.62    0.09    0.22
  WS02006284WS02006280 CONDUIT    204.81     0  02:27      1.86    0.09    0.20
  WS02006280WS02006229 CONDUIT    204.81     0  02:27      2.99    0.04    0.14
  WS02006229WS02006228 CONDUIT    521.21     0  02:26      1.04    1.73    1.00
  WS02006256WS02006235 CONDUIT    177.52     0  00:01      2.73    1.88    1.00
  WS02006253WS02006251 CONDUIT     41.91     0  02:32      0.43    0.13    0.68
  WS02006252WS02006251 CONDUIT    200.34     0  02:01      1.97    0.74    0.76
  WS02006251WS02006249 CONDUIT    244.22     0  02:32      0.95    0.70    0.69
  WS02006249WS02006248 CONDUIT    246.94     0  02:32      1.03    1.35    0.68
  WS02006248WS02006247 CONDUIT    249.50     0  02:32      1.00    0.54    0.72
  WS02006247WS02006245 CONDUIT    252.49     0  02:31      0.96    2.00    0.76
  WS02006245WS02006243 CONDUIT    255.94     0  02:31      0.99    0.76    0.78
  WS02006243WS02006242 CONDUIT    262.01     0  02:31      0.81    0.56    0.88
  WS02006242WS02006240 CONDUIT    266.42     0  02:30      0.74    1.06    0.95
  WS02006240WS02006239 CONDUIT    271.96     0  02:30      0.77    0.86    0.93
  WS02006239WS02006238 CONDUIT    275.93     0  02:30      0.73    0.88    1.00
  WS02006238WS02006235 CONDUIT    276.92     0  02:30      1.32    0.62    1.00
  WS02006235WS02006234 CONDUIT    329.33     0  03:12      0.94    3.47    0.98
  WS02006234WS02006232 CONDUIT    330.38     0  03:12      1.17    0.67    1.00
  WS02006232WS02006231 CONDUIT    330.46     0  03:12      0.94    0.69    0.96
  WS02006231WS02006230 CONDUIT    332.14     0  03:12      1.29    5.04    0.90
  WS02006230WS02006229 CONDUIT    344.60     0  03:11      0.90    7.67    1.00
  WS02006228WS02006109 CONDUIT    521.21     0  02:26      1.04    2.28    1.00
  WS02006116WS02004401 CONDUIT    529.32     0  02:27      0.76    0.73    0.83
  WS02006115WS02006116 CONDUIT    529.49     0  02:27      0.83    0.68    0.75
  WS02006113WS02006111 CONDUIT    542.43     0  02:26      2.44    0.65    0.46
  WS02006112WS02006115 CONDUIT    529.99     0  02:26      0.73    0.31    0.87
  WS02006111WS02006112 CONDUIT    525.74     0  02:27      1.47    0.25    0.67
  WS02006110WS02006113 CONDUIT    522.66     0  02:26      1.24    0.48    0.78
  WS02006109WS02006110 CONDUIT    522.45     0  02:26      1.04    1.00    1.00
  WS02004411WS02004412 CONDUIT    528.71     0  02:30      0.92    0.75    0.69
  WS02004401WS02004402 CONDUIT    529.24     0  02:28      0.74    0.64    0.86
  WS02004413WS02003067 CONDUIT    528.61     0  02:31      1.10    0.23    0.59
  WS02004412WS02004413 CONDUIT    528.64     0  02:30      0.81    0.35    0.77
  WS02004410WS02004411 CONDUIT    528.82     0  02:30      0.93    0.72    0.68
  WS02004409WS02004410 CONDUIT    529.01     0  02:29      0.95    0.68    0.67
  WS02004407WS02004409 CONDUIT    529.24     0  02:29      1.43    0.19    0.48
  WS02004406WS02004407 CONDUIT    529.26     0  02:29      1.03    0.24    0.62
  WS02004405WS02004406 CONDUIT    529.28     0  02:28      0.69    1.04    0.95
  WS02004404WS02004405 CONDUIT    529.23     0  02:28      0.69    5.19    0.95
  WS02004403WS02004404 CONDUIT    529.10     0  02:28      0.70    0.38    0.92
  WS02004402WS02004403 CONDUIT    529.13     0  02:28      0.72    0.76    0.88
  WS02004139WS02001211 CONDUIT    285.90     0  03:23      0.80    0.36    0.53
  WS02004138WS02004139 CONDUIT    290.01     0  00:00      3.34    0.06    0.39
  WS02003067WS02003066 CONDUIT    528.64     0  02:31      1.20    0.17    0.41
  WS02001213WS02003059 CONDUIT    295.61     0  03:21      0.80    0.49    0.72
  WS02001212WS02001213 CONDUIT    294.53     0  03:22      1.19    0.45    0.41
  WS02001211WS02001212 CONDUIT    293.93     0  03:23      0.67    0.22    0.58
  WS02003072WS02003073 CONDUIT    825.20     0  03:02      1.65    1.78    0.45
  WS02003069WS02003072 CONDUIT    825.20     0  03:01      1.56    0.40    0.48
  WS02003060WS02003069 CONDUIT    824.89     0  03:01      1.81    0.32    0.42
  WS02003059WS02003060 CONDUIT    297.04     0  03:21      0.82    0.19    0.62
  HS02004901HS02004770 CONDUIT      9.22     0  02:24      0.05    0.03    0.31
  HS02004876HS02004881 CONDUIT     36.81     0  02:26      0.59    0.39    0.09
  HS02004870HS02004876 CONDUIT     29.40     0  02:26      0.41    0.02    0.10
  HS02004842HS02004848 CONDUIT      6.79     0  02:52      0.04    0.00    0.28
  HS02004837HS02004842 CONDUIT      7.01     0  03:02      0.41    0.00    0.29
  HS02004830HS02004837 CONDUIT     25.65     0  02:26      0.46    0.03    0.08
  HS02004824HS02004830 CONDUIT     25.79     0  02:27      0.49    0.03    0.08
  HS02004817HS02004824 CONDUIT     44.91     0  02:27      0.17    0.02    0.41
  HS02004770HS02004777 CONDUIT     48.37     0  02:24      0.21    0.09    0.33
  HS02004799HS02004480 CONDUIT    123.11     0  02:25      0.58    0.16    0.31
  HS02004792HS02004799 CONDUIT    112.10     0  02:25      0.66    0.07    0.24
  HS02004788HS02004792 CONDUIT     65.23     0  02:26      0.81    0.04    0.11
  HS02004785HS02004788 CONDUIT     48.34     0  02:26      0.49    0.36    0.14
  HS02004777HS02004785 CONDUIT     48.24     0  02:25      0.26    0.06    0.26
  HS02004480HS02004478 CONDUIT    146.06     0  02:26      0.94    0.62    0.22
  HS02004479HS02004480 CONDUIT     23.22     0  02:28      0.27    0.02    0.30
  HS02004862HS02004870 CONDUIT     22.03     0  02:27      0.49    0.02    0.06
  HS02004848HS02004852 CONDUIT      9.33     0  02:26      0.33    0.01    0.04
  HS02004856HS02004862 CONDUIT     14.82     0  02:26      0.35    0.01    0.06
  HS02004852HS02004856 CONDUIT      9.30     0  02:27      0.14    0.01    0.10
  HS02004802HS02004478 CONDUIT     59.19     0  02:29      0.33    0.05    0.26
  HS02004478WS02006287 CONDUIT    204.70     0  02:27      1.31    0.06    0.17
  HS02004817HS02004807 CONDUIT     45.68     0  02:29      0.13    0.03    0.52
  HS02004807HS02004802 CONDUIT     59.00     0  02:28      0.28    0.11    0.31
  YS02001759YS02001757 CONDUIT    384.55     0  02:57      0.49    0.27    1.00
  YS02001762YS02001759 CONDUIT    207.58     0  02:57      0.26    0.24    1.00
  YS02001765YS02001762 CONDUIT    205.05     0  02:57      0.28    0.19    1.00
  YS02001770YS02001767 CONDUIT    198.84     0  02:57      0.25    0.79    1.00
  YS02001774YS02001770 CONDUIT     32.96     0  01:57      0.22    0.02    1.00
  YS02001779YS02001774 CONDUIT     19.39     0  02:53      0.05    0.01    1.00
  YS02001649YS02001757 CONDUIT    610.35     0  02:57      0.78    0.37    1.00
  YS02001767YS02001765 CONDUIT    202.09     0  02:57      0.30    0.25    1.00
  YS02006561YS02001783 CONDUIT    644.76     0  03:02      2.02    0.33    0.72
  YS02001783YS02001784 CONDUIT    645.00     0  03:02      1.46    0.89    1.00
  YS02001784YS02001785 CONDUIT    645.53     0  03:02      1.58    1.50    1.00
  YS02001788YS02001790 CONDUIT    644.36     0  03:02      2.09    0.47    1.00
  YS02001790YS02001791 CONDUIT    644.63     0  03:02      2.47    0.70    1.00
  YS02001791YS02001793 CONDUIT    644.81     0  03:02      4.95    0.28    1.00
  YS02001910YS02001907 CONDUIT    223.96     0  03:02      0.49    0.13    0.91
  YS02001786YS02001788 CONDUIT    644.38     0  03:02      2.07    1.24    1.00
  YS02001915YS02001910 CONDUIT    228.15     0  03:01      0.55    0.11    0.71
  YS02001918YS02001915 CONDUIT     79.15     0  03:02      0.44    0.04    0.43
  YS02001923YS02001920 CONDUIT     64.77     0  03:02      0.57    0.03    0.22
  YS02001926YS02001923 CONDUIT     64.74     0  03:02      0.66    0.09    0.18
  YS02001929YS02001926 CONDUIT     64.92     0  03:01      0.71    0.03    0.17
  YS02001920YS02001918 CONDUIT     71.90     0  03:02      0.57    0.07    0.29
  YS02001629YS02163301 CONDUIT    180.66     0  03:04      0.23    0.22    1.00
  YS02001619YS02001622 CONDUIT    160.63     0  02:58      0.57    0.24    1.00
  YS02001622YS02001625 CONDUIT    203.86     0  02:50      0.31    0.11    1.00
  YS02001625YS02001629 CONDUIT    203.15     0  02:52      0.27    0.10    1.00
  YS02163301YS02001633 CONDUIT    180.36     0  03:04      0.23    0.17    1.00
  YS02163601YS02164001 CONDUIT    319.56     0  03:04      0.41    0.28    1.00
  YS02164001YS02001641 CONDUIT    319.04     0  03:04      0.41    0.44    1.00
  YS02001641YS02001644 CONDUIT    319.28     0  03:04      0.41    1.03    1.00
  YS02001647YS02001649 CONDUIT    455.83     0  03:04      0.58    0.24    1.00
  YS02006553YS02006556 CONDUIT    459.07     0  03:01      0.59    0.39    0.99
  YS02006556YS02006558 CONDUIT    496.37     0  02:59      0.63    0.39    1.00
  YSB6556YSB1171       CONDUIT     13.19     0  02:28      0.06    0.01    0.57
  YS02001907YS02006553 CONDUIT    455.44     0  03:02      0.51    0.54    1.00
  YS02006558YS02006561 CONDUIT    693.06     0  03:00      3.19    1.53    0.73
  YS02001633YS02163601 CONDUIT    319.42     0  03:04      0.41    0.34    1.00
  YS02001644YS02001647 CONDUIT    455.82     0  03:04      0.58    0.27    1.00
  YS02001745YS02001748 CONDUIT    375.17     0  03:11      1.42    0.14    0.93
  YS02001748YS02001751 CONDUIT    364.64     0  02:55      1.00    0.18    1.00
  YS02001751YS02001754 CONDUIT    211.64     0  03:07      0.86    0.10    1.00
  YS02001754YS02001757 CONDUIT    211.84     0  03:07      0.33    0.09    1.00
  YS02001882YS02001884 CONDUIT     13.22     0  03:04      0.09    0.02    0.65
  YS02001884YS02001887 CONDUIT     15.99     0  02:55      0.05    0.02    0.74
  YS02001890YS02001895 CONDUIT    239.64     0  03:02      0.41    0.11    0.71
  YS02001895YS02001898 CONDUIT    247.17     0  03:02      0.54    0.43    0.57
  YS02001898YS02001901 CONDUIT    257.85     0  03:02      0.48    0.17    0.65
  YS02001901YS02001904 CONDUIT    248.01     0  03:01      0.43    0.38    0.71
  YS02001904YS02001907 CONDUIT    262.84     0  03:01      0.37    0.09    0.85
  YS02001887YS02001890 CONDUIT    238.28     0  03:02      0.36    0.41    0.80
  YS02001652YS02001649 CONDUIT    231.03     0  03:06      0.56    0.11    1.00
  YS02001655YS02001652 CONDUIT    230.62     0  03:06      0.91    0.11    1.00
  YS02001658YS02001655 CONDUIT    389.02     0  02:50      1.15    0.17    1.00
  YS02001661YS02001658 CONDUIT    552.36     0  03:12      1.49    0.22    1.00
  YS02001664YS02001661 CONDUIT    473.58     0  03:47      1.39    0.15    0.70
  YSB1154YSB6556       CONDUIT     13.14     0  02:25      0.16    0.02    0.46
  YSB1174YSB1171       CONDUIT     10.08     0  02:23      0.04    0.02    0.57
  YSB1171HS02004479    CONDUIT     23.09     0  02:27      0.54    0.02    0.44
  HS02004881HS02006253 CONDUIT     40.75     0  02:26      1.48    0.01    0.13
  YS02001793JiankangQianchi CONDUIT    885.19     0  02:36     13.36    0.07    1.00
  YS02001757CaochengTiaoxuchi CONDUIT   1104.26     0  03:02      1.66    0.49    1.00
  WSF200WS02003060     CONDUIT    529.06     0  02:31      2.04    0.12    0.32
  1                    CONDUIT    827.02     0  03:03      3.16    0.29    0.37
  2                    CONDUIT      0.00     0  00:00      0.00    0.00    0.00
  3                    CONDUIT    597.65     0  00:00     10.05    0.95    0.86
  4                    CONDUIT      0.00     0  00:00      0.00    0.00    0.00
  CC-Pump-1            PUMP       200.00     0  02:01              1.00
  CC-Pump-2            PUMP         0.00     0  00:00              0.00
  JK-Pump-1            PUMP       300.00     0  00:00              1.00
  JK-Pump-2            PUMP       300.00     0  00:00              1.00
  XR-Pump-1            PUMP        95.00     0  02:50              1.00
  XR-Pump-2            PUMP        95.00     0  00:00              1.00
  XR-Pump-3            PUMP        95.00     0  00:00              1.00
  XR-Pump-4            PUMP        95.00     0  00:00              1.00
  
  
  ***************************
  Flow Classification Summary
  ***************************
  
  -------------------------------------------------------------------------------------
                      Adjusted    ---------- Fraction of Time in Flow Class ---------- 
                       /Actual         Up    Down  Sub   Sup   Up    Down  Norm  Inlet 
  Conduit               Length    Dry  Dry   Dry   Crit  Crit  Crit  Crit  Ltd   Ctrl  
  -------------------------------------------------------------------------------------
  WS02003066WSF200        1.00   0.07  0.00  0.00  0.00  0.93  0.00  0.00  0.61  0.00
  WS02006287WS02006284    1.00   0.03  0.01  0.00  0.58  0.37  0.00  0.00  0.77  0.00
  WS02006284WS02006280    1.00   0.04  0.00  0.00  0.00  0.00  0.00  0.96  0.00  0.00
  WS02006280WS02006229    1.00   0.04  0.00  0.00  0.00  0.00  0.00  0.96  0.00  0.00
  WS02006229WS02006228    1.00   0.00  0.00  0.00  0.98  0.00  0.00  0.02  0.00  0.00
  WS02006256WS02006235    1.00   0.00  0.00  0.00  1.00  0.00  0.00  0.00  0.00  0.00
  WS02006253WS02006251    1.00   0.02  0.01  0.00  0.96  0.00  0.00  0.00  0.00  0.00
  WS02006252WS02006251    1.00   0.08  0.00  0.00  0.00  0.00  0.92  0.00  0.00  0.00
  WS02006251WS02006249    1.00   0.00  0.00  0.00  1.00  0.00  0.00  0.00  0.48  0.00
  WS02006249WS02006248    1.00   0.00  0.02  0.00  0.68  0.00  0.30  0.00  0.00  0.00
  WS02006248WS02006247    1.00   0.02  0.00  0.00  0.97  0.00  0.00  0.01  0.36  0.00
  WS02006247WS02006245    1.00   0.02  0.00  0.00  0.96  0.00  0.00  0.02  0.00  0.00
  WS02006245WS02006243    1.00   0.02  0.00  0.00  0.94  0.00  0.00  0.04  0.02  0.00
  WS02006243WS02006242    1.00   0.01  0.01  0.00  0.98  0.00  0.00  0.00  0.20  0.00
  WS02006242WS02006240    1.00   0.01  0.00  0.00  0.99  0.00  0.00  0.00  0.00  0.00
  WS02006240WS02006239    1.00   0.00  0.00  0.00  0.96  0.00  0.00  0.04  0.02  0.00
  WS02006239WS02006238    1.00   0.00  0.00  0.00  1.00  0.00  0.00  0.00  0.00  0.00
  WS02006238WS02006235    1.00   0.00  0.00  0.00  1.00  0.00  0.00  0.00  0.00  0.00
  WS02006235WS02006234    1.00   0.00  0.00  0.00  0.96  0.00  0.04  0.00  0.00  0.00
  WS02006234WS02006232    1.00   0.00  0.00  0.00  1.00  0.00  0.00  0.00  0.00  0.00
  WS02006232WS02006231    1.00   0.00  0.00  0.00  0.99  0.00  0.01  0.00  0.00  0.00
  WS02006231WS02006230    1.00   0.00  0.00  0.00  0.50  0.00  0.49  0.00  0.00  0.00
  WS02006230WS02006229    1.00   0.00  0.00  0.00  0.98  0.00  0.00  0.02  0.01  0.00
  WS02006228WS02006109    1.00   0.00  0.00  0.00  1.00  0.00  0.00  0.00  0.00  0.00
  WS02006116WS02004401    1.00   0.02  0.00  0.00  0.98  0.00  0.00  0.00  0.00  0.00
  WS02006115WS02006116    1.00   0.02  0.00  0.00  0.97  0.00  0.00  0.01  0.01  0.00
  WS02006113WS02006111    1.00   0.02  0.00  0.00  0.00  0.98  0.00  0.00  0.13  0.00
  WS02006112WS02006115    1.00   0.02  0.00  0.00  0.98  0.00  0.00  0.00  0.00  0.00
  WS02006111WS02006112    1.00   0.02  0.00  0.00  0.98  0.00  0.00  0.00  0.98  0.00
  WS02006110WS02006113    1.00   0.02  0.00  0.00  0.98  0.00  0.00  0.00  0.00  0.00
  WS02006109WS02006110    1.00   0.00  0.02  0.00  0.98  0.00  0.00  0.00  0.00  0.00
  WS02004411WS02004412    1.00   0.05  0.00  0.00  0.95  0.00  0.00  0.00  0.00  0.00
  WS02004401WS02004402    1.00   0.02  0.00  0.00  0.98  0.00  0.00  0.00  0.00  0.00
  WS02004413WS02003067    1.00   0.05  0.01  0.00  0.00  0.00  0.93  0.00  0.00  0.00
  WS02004412WS02004413    1.00   0.05  0.00  0.00  0.95  0.00  0.00  0.00  0.01  0.00
  WS02004410WS02004411    1.00   0.05  0.00  0.00  0.95  0.00  0.00  0.00  0.00  0.00
  WS02004409WS02004410    1.00   0.05  0.00  0.00  0.95  0.00  0.00  0.00  0.00  0.00
  WS02004407WS02004409    1.00   0.05  0.00  0.00  0.95  0.00  0.00  0.00  0.80  0.00
  WS02004406WS02004407    1.00   0.00  0.05  0.00  0.95  0.00  0.00  0.00  0.00  0.00
  WS02004405WS02004406    1.00   0.00  0.00  0.00  1.00  0.00  0.00  0.00  0.02  0.00
  WS02004404WS02004405    1.00   0.00  0.00  0.00  1.00  0.00  0.00  0.00  0.00  0.00
  WS02004403WS02004404    1.00   0.00  0.02  0.00  0.98  0.00  0.00  0.00  0.02  0.00
  WS02004402WS02004403    1.00   0.02  0.00  0.00  0.98  0.00  0.00  0.00  0.00  0.00
  WS02004139WS02001211    1.00   0.00  0.00  0.00  0.99  0.00  0.01  0.00  0.00  0.00
  WS02004138WS02004139    1.00   0.00  0.00  0.00  0.99  0.01  0.00  0.00  1.00  0.00
  WS02003067WS02003066    1.00   0.07  0.01  0.00  0.93  0.00  0.00  0.00  0.00  0.00
  WS02001213WS02003059    1.00   0.00  0.00  0.00  0.99  0.00  0.00  0.00  0.00  0.00
  WS02001212WS02001213    1.00   0.01  0.00  0.00  0.70  0.00  0.30  0.00  0.00  0.00
  WS02001211WS02001212    1.00   0.00  0.01  0.00  0.99  0.00  0.00  0.00  0.00  0.00
  WS02003072WS02003073    1.00   0.00  0.00  0.00  0.00  0.00  0.00  1.00  0.00  0.00
  WS02003069WS02003072    1.00   0.00  0.00  0.00  0.99  0.01  0.00  0.00  0.45  0.00
  WS02003060WS02003069    1.00   0.00  0.00  0.00  0.99  0.01  0.00  0.00  0.01  0.00
  WS02003059WS02003060    1.00   0.00  0.00  0.00  0.99  0.01  0.00  0.00  0.01  0.00
  HS02004901HS02004770    1.00   0.04  0.00  0.00  0.96  0.00  0.00  0.00  0.00  0.00
  HS02004876HS02004881    1.00   0.02  0.00  0.00  0.98  0.00  0.00  0.00  0.00  0.00
  HS02004870HS02004876    1.00   0.01  0.00  0.00  0.99  0.00  0.00  0.00  0.95  0.00
  HS02004842HS02004848    1.00   0.00  0.04  0.00  0.96  0.00  0.00  0.00  0.61  0.00
  HS02004837HS02004842    1.00   0.00  0.00  0.00  0.99  0.01  0.00  0.00  0.11  0.00
  HS02004830HS02004837    1.00   0.00  0.00  0.00  1.00  0.00  0.00  0.00  0.99  0.00
  HS02004824HS02004830    1.00   0.00  0.00  0.00  1.00  0.00  0.00  0.00  0.00  0.00
  HS02004817HS02004824    1.00   0.00  0.00  0.00  1.00  0.00  0.00  0.00  1.00  0.00
  HS02004770HS02004777    1.00   0.00  0.04  0.00  0.96  0.00  0.00  0.00  0.03  0.00
  HS02004799HS02004480    1.00   0.00  0.02  0.00  0.95  0.00  0.02  0.00  0.00  0.00
  HS02004792HS02004799    1.00   0.00  0.00  0.00  0.99  0.01  0.00  0.00  0.98  0.00
  HS02004788HS02004792    1.00   0.00  0.00  0.00  0.98  0.02  0.00  0.00  0.98  0.00
  HS02004785HS02004788    1.00   0.00  0.00  0.00  1.00  0.00  0.00  0.00  0.00  0.00
  HS02004777HS02004785    1.00   0.00  0.00  0.00  1.00  0.00  0.00  0.00  0.13  0.00
  HS02004480HS02004478    1.00   0.04  0.00  0.00  0.63  0.00  0.00  0.33  0.00  0.00
  HS02004479HS02004480    1.00   0.02  0.00  0.00  0.98  0.00  0.00  0.00  0.12  0.00
  HS02004862HS02004870    1.00   0.00  0.00  0.00  1.00  0.00  0.00  0.00  0.06  0.00
  HS02004848HS02004852    1.00   0.04  0.00  0.00  0.96  0.00  0.00  0.00  0.69  0.00
  HS02004856HS02004862    1.00   0.00  0.05  0.00  0.95  0.00  0.00  0.00  0.81  0.00
  HS02004852HS02004856    1.00   0.04  0.00  0.00  0.96  0.00  0.00  0.00  0.86  0.00
  HS02004802HS02004478    1.00   0.04  0.00  0.00  0.96  0.00  0.00  0.00  0.03  0.00
  HS02004478WS02006287    1.00   0.05  0.00  0.00  0.73  0.23  0.00  0.00  0.77  0.00
  HS02004817HS02004807    1.00   0.00  0.04  0.00  0.96  0.00  0.00  0.00  0.01  0.00
  HS02004807HS02004802    1.00   0.04  0.00  0.00  0.96  0.00  0.00  0.00  0.00  0.00
  YS02001759YS02001757    1.00   0.00  0.00  0.00  1.00  0.00  0.00  0.00  0.16  0.00
  YS02001762YS02001759    1.00   0.00  0.00  0.00  1.00  0.00  0.00  0.00  0.03  0.00
  YS02001765YS02001762    1.00   0.00  0.00  0.00  1.00  0.00  0.00  0.00  0.15  0.00
  YS02001770YS02001767    1.00   0.00  0.00  0.00  1.00  0.00  0.00  0.00  0.00  0.00
  YS02001774YS02001770    1.00   0.00  0.04  0.00  0.96  0.00  0.00  0.00  0.03  0.00
  YS02001779YS02001774    1.00   0.00  0.00  0.00  1.00  0.00  0.00  0.00  0.21  0.00
  YS02001649YS02001757    1.00   0.00  0.00  0.00  1.00  0.00  0.00  0.00  0.16  0.00
  YS02001767YS02001765    1.00   0.00  0.00  0.00  1.00  0.00  0.00  0.00  0.01  0.00
  YS02006561YS02001783    1.00   0.05  0.00  0.00  0.30  0.65  0.00  0.00  0.71  0.00
  YS02001783YS02001784    1.00   0.00  0.05  0.00  0.95  0.00  0.00  0.00  0.01  0.00
  YS02001784YS02001785    1.00   0.00  0.00  0.00  1.00  0.00  0.00  0.00  0.19  0.00
  YS02001788YS02001790    1.00   0.00  0.00  0.00  0.41  0.59  0.00  0.00  0.61  0.00
  YS02001790YS02001791    1.00   0.00  0.00  0.00  0.38  0.62  0.00  0.00  0.47  0.00
  YS02001791YS02001793    1.00   0.00  0.00  0.00  0.40  0.60  0.00  0.00  0.02  0.00
  YS02001910YS02001907    1.00   0.00  0.00  0.00  0.98  0.00  0.00  0.02  0.12  0.00
  YS02001786YS02001788    1.00   0.00  0.00  0.00  0.38  0.62  0.00  0.00  0.00  0.00
  YS02001915YS02001910    1.00   0.00  0.00  0.00  0.99  0.01  0.00  0.00  0.18  0.00
  YS02001918YS02001915    1.00   0.00  0.01  0.00  0.99  0.00  0.00  0.00  0.69  0.00
  YS02001923YS02001920    1.00   0.00  0.00  0.00  1.00  0.00  0.00  0.00  1.00  0.00
  YS02001926YS02001923    1.00   0.00  0.03  0.00  0.00  0.00  0.97  0.00  0.00  0.00
  YS02001929YS02001926    1.00   0.00  0.04  0.00  0.96  0.00  0.00  0.00  0.87  0.00
  YS02001920YS02001918    1.00   0.00  0.01  0.00  0.99  0.00  0.00  0.00  0.00  0.00
  YS02001629YS02163301    1.00   0.04  0.00  0.00  0.95  0.00  0.00  0.00  0.00  0.00
  YS02001619YS02001622    1.00   0.04  0.00  0.00  0.96  0.00  0.00  0.00  0.00  0.00
  YS02001622YS02001625    1.00   0.04  0.00  0.00  0.96  0.00  0.00  0.00  0.07  0.00
  YS02001625YS02001629    1.00   0.04  0.02  0.00  0.92  0.00  0.02  0.00  0.00  0.00
  YS02163301YS02001633    1.00   0.00  0.04  0.00  0.96  0.00  0.00  0.00  0.00  0.00
  YS02163601YS02164001    1.00   0.00  0.03  0.00  0.97  0.00  0.00  0.00  0.00  0.00
  YS02164001YS02001641    1.00   0.01  0.02  0.00  0.97  0.00  0.00  0.00  0.06  0.00
  YS02001641YS02001644    1.00   0.00  0.01  0.00  0.99  0.00  0.00  0.00  0.00  0.00
  YS02001647YS02001649    1.00   0.00  0.05  0.00  0.95  0.00  0.00  0.00  0.01  0.00
  YS02006553YS02006556    1.00   0.02  0.00  0.00  0.98  0.00  0.00  0.00  0.03  0.00
  YS02006556YS02006558    1.00   0.00  0.01  0.00  0.99  0.00  0.00  0.00  0.00  0.00
  YSB6556YSB1171          1.00   0.02  0.02  0.00  0.96  0.00  0.00  0.00  0.00  0.00
  YS02001907YS02006553    1.00   0.00  0.02  0.00  0.98  0.00  0.00  0.00  0.00  0.00
  YS02006558YS02006561    1.00   0.05  0.00  0.00  0.00  0.95  0.00  0.00  0.60  0.00
  YS02001633YS02163601    1.00   0.00  0.01  0.00  0.99  0.00  0.00  0.00  0.15  0.00
  YS02001644YS02001647    1.00   0.00  0.05  0.00  0.95  0.00  0.00  0.00  0.00  0.00
  YS02001745YS02001748    1.00   0.00  0.00  0.00  0.85  0.02  0.00  0.13  0.07  0.00
  YS02001748YS02001751    1.00   0.00  0.00  0.00  0.96  0.04  0.00  0.00  0.16  0.00
  YS02001751YS02001754    1.00   0.00  0.00  0.00  0.94  0.00  0.00  0.06  0.02  0.00
  YS02001754YS02001757    1.00   0.00  0.00  0.00  0.99  0.01  0.00  0.00  0.20  0.00
  YS02001882YS02001884    1.00   0.04  0.00  0.00  0.95  0.00  0.00  0.00  0.00  0.00
  YS02001884YS02001887    1.00   0.03  0.01  0.00  0.96  0.00  0.00  0.00  0.00  0.00
  YS02001890YS02001895    1.00   0.00  0.04  0.00  0.95  0.00  0.00  0.00  0.00  0.00
  YS02001895YS02001898    1.00   0.05  0.00  0.00  0.94  0.00  0.01  0.00  0.00  0.00
  YS02001898YS02001901    1.00   0.05  0.00  0.00  0.95  0.00  0.00  0.00  0.03  0.00
  YS02001901YS02001904    1.00   0.05  0.00  0.00  0.95  0.00  0.00  0.00  0.00  0.00
  YS02001904YS02001907    1.00   0.00  0.04  0.00  0.95  0.00  0.00  0.00  0.00  0.00
  YS02001887YS02001890    1.00   0.00  0.00  0.00  0.98  0.00  0.02  0.00  0.00  0.00
  YS02001652YS02001649    1.00   0.00  0.00  0.00  1.00  0.00  0.00  0.00  0.18  0.00
  YS02001655YS02001652    1.00   0.00  0.00  0.00  0.94  0.00  0.00  0.06  0.02  0.00
  YS02001658YS02001655    1.00   0.00  0.04  0.00  0.92  0.03  0.00  0.00  0.12  0.00
  YS02001661YS02001658    1.00   0.04  0.00  0.00  0.85  0.11  0.00  0.00  0.16  0.00
  YS02001664YS02001661    1.00   0.04  0.00  0.00  0.82  0.14  0.00  0.00  0.30  0.00
  YSB1154YSB6556          1.00   0.04  0.00  0.00  0.96  0.00  0.00  0.00  0.02  0.00
  YSB1174YSB1171          1.00   0.02  0.01  0.00  0.97  0.00  0.00  0.00  0.00  0.00
  YSB1171HS02004479       1.00   0.02  0.00  0.00  0.97  0.00  0.00  0.00  0.10  0.00
  HS02004881HS02006253    1.00   0.03  0.00  0.00  0.65  0.01  0.00  0.32  0.48  0.00
  YS02001793JiankangQianchi    1.00   0.00  0.00  0.00  0.54  0.45  0.00  0.00  0.11  0.00
  YS02001757CaochengTiaoxuchi    1.00   0.00  0.08  0.00  0.92  0.00  0.00  0.00  0.00  0.00
  WSF200WS02003060        1.00   0.00  0.07  0.00  0.78  0.14  0.00  0.00  0.25  0.00
  1                       1.00   0.00  0.00  0.00  0.00  1.00  0.00  0.00  0.24  0.00
  2                       1.00   1.00  0.00  0.00  0.00  0.00  0.00  0.00  0.00  0.00
  3                       1.00   0.06  0.00  0.00  0.00  0.94  0.00  0.00  0.00  0.00
  4                       1.00   1.00  0.00  0.00  0.00  0.00  0.00  0.00  0.00  0.00
  
  
  *************************
  Conduit Surcharge Summary
  *************************
  
  ----------------------------------------------------------------------------
                                                           Hours        Hours 
                         --------- Hours Full --------   Above Full   Capacity
  Conduit                Both Ends  Upstream  Dnstream   Normal Flow   Limited
  ----------------------------------------------------------------------------
  WS02006229WS02006228        1.38      1.43      1.38      3.86         1.38
  WS02006256WS02006235        6.06      6.06      7.83      5.14         0.01
  WS02006249WS02006248        0.01      0.01      0.01      3.69         0.01
  WS02006247WS02006245        0.01      0.01      0.01      3.77         0.01
  WS02006242WS02006240        0.01      0.01      0.01      0.05         0.01
  WS02006239WS02006238        0.51      0.51      0.82      0.01         0.01
  WS02006238WS02006235        0.75      0.75      1.00      0.01         0.01
  WS02006235WS02006234        0.01      0.01      0.59      6.09         0.01
  WS02006234WS02006232        0.01      0.01      1.16      0.01         0.01
  WS02006232WS02006231        0.01      0.01      1.16      0.01         0.01
  WS02006231WS02006230        0.01      0.01      0.01      6.05         0.01
  WS02006230WS02006229        1.89      3.73      1.89      6.13         1.89
  WS02006228WS02006109        1.41      1.59      1.41      4.05         1.41
  WS02006112WS02006115        0.01      0.01      0.94      0.01         0.01
  WS02006111WS02006112        0.01      0.01      3.87      0.01         0.01
  WS02006110WS02006113        0.01      0.01      1.49      0.01         0.01
  WS02006109WS02006110        0.08      0.08      1.59      0.09         0.01
  WS02004405WS02004406        0.01      0.01      0.01      0.82         0.01
  WS02004404WS02004405        0.01      0.01      0.01      5.99         0.01
  WS02003072WS02003073        0.01      0.01      0.01      3.80         0.01
  YS02001759YS02001757        5.53      5.53      5.64      0.01         0.01
  YS02001762YS02001759        5.50      5.50      5.53      0.01         0.01
  YS02001765YS02001762        5.47      5.47      5.50      0.01         0.01
  YS02001770YS02001767        5.43      5.43      5.43      0.01         0.50
  YS02001774YS02001770        5.41      5.41      5.49      0.01         0.01
  YS02001779YS02001774        5.14      5.14      5.49      0.01         0.01
  YS02001649YS02001757        5.51      5.51      5.64      0.01         0.01
  YS02001767YS02001765        5.43      5.43      5.47      0.01         0.01
  YS02006561YS02001783        0.01      0.01      0.21      0.01         0.01
  YS02001783YS02001784        0.21      0.21      0.44      0.01         0.02
  YS02001784YS02001785        0.23      0.44      0.23      1.11         0.21
  YS02001788YS02001790        0.14      0.14      1.75      0.01         0.01
  YS02001790YS02001791        1.75      1.75      1.89      0.01         0.01
  YS02001791YS02001793        1.89      1.89      2.18      0.01         0.01
  YS02001910YS02001907        0.01      0.01      0.25      0.01         0.01
  YS02001786YS02001788        0.14      0.23      0.14      0.56         0.12
  YS02001629YS02163301        5.39      5.39      5.42      0.01         0.01
  YS02001619YS02001622        4.71      4.71      4.80      0.01         0.02
  YS02001622YS02001625        4.80      4.80      5.31      0.01         0.01
  YS02001625YS02001629        4.72      4.72      5.31      0.01         0.01
  YS02163301YS02001633        5.42      5.42      5.47      0.01         0.01
  YS02163601YS02164001        5.46      5.46      5.51      0.01         0.01
  YS02164001YS02001641        5.46      5.46      5.48      0.01         0.02
  YS02001641YS02001644        5.48      5.48      5.48      0.01         0.57
  YS02001647YS02001649        5.27      5.27      5.51      0.01         0.01
  YS02006553YS02006556        0.01      0.01      0.36      0.01         0.01
  YS02006556YS02006558        0.03      0.03      0.51      0.01         0.01
  YS02001907YS02006553        1.13      1.13      1.36      0.01         0.01
  YS02006558YS02006561        0.01      0.01      0.01      0.94         0.01
  YS02001633YS02163601        5.45      5.45      5.51      0.01         0.01
  YS02001644YS02001647        5.27      5.27      5.48      0.01         0.01
  YS02001745YS02001748        0.01      0.01      4.33      0.01         0.01
  YS02001748YS02001751        4.44      4.44      4.76      0.01         0.01
  YS02001751YS02001754        4.76      4.76      5.17      0.01         0.01
  YS02001754YS02001757        5.26      5.26      5.64      0.01         0.01
  YS02001904YS02001907        0.01      0.01      0.43      0.01         0.01
  YS02001652YS02001649        5.29      5.29      5.51      0.01         0.01
  YS02001655YS02001652        4.78      4.78      5.24      0.01         0.01
  YS02001658YS02001655        4.34      4.34      4.78      0.01         0.01
  YS02001661YS02001658        0.06      0.06      4.34      0.01         0.01
  YS02001664YS02001661        0.01      0.01      0.71      0.01         0.01
  YS02001793JiankangQianchi        2.11      2.11      3.00      0.01         0.01
  YS02001757CaochengTiaoxuchi        4.42      4.42      5.64      0.01         0.01
  3                           0.01      0.01      0.01      0.01         0.01
  
  
  ***************
  Pumping Summary
  ***************
  
  ---------------------------------------------------------------------------------------------------------
                                                  Min       Avg       Max     Total     Power    % Time Off
                        Percent   Number of      Flow      Flow      Flow    Volume     Usage    Pump Curve
  Pump                 Utilized   Start-Ups       LPS       LPS       LPS  10^6 ltr     Kw-hr    Low   High
  ---------------------------------------------------------------------------------------------------------
  CC-Pump-1               50.08           1      0.00    193.51    200.00     2.725      4.74    0.0   19.9
  CC-Pump-2                0.00           0      0.00      0.00      0.00     0.000      0.00    0.0    0.0
  JK-Pump-1               61.70           3      0.00    118.90    300.00     1.385     24.38    0.0    0.0
  JK-Pump-2               97.87           2      0.00    211.51    300.00     4.470     47.50    0.0    0.0
  XR-Pump-1               44.68           2      0.00     85.70     95.00     1.083      5.80    0.0    0.0
  XR-Pump-2               31.91           2      0.00     72.68     95.00     0.770     13.43    0.0    0.0
  XR-Pump-3               95.74           3      0.00     89.01     95.00     2.451     21.14    0.0    0.0
  XR-Pump-4               97.87           3      0.00     89.16     95.00     2.508     21.89    0.0    0.0
  

  Analysis begun on:  Mon Dec 20 12:25:36 2021
  Analysis ended on:  Mon Dec 20 12:25:39 2021
  Total elapsed time: 00:00:03