
  EPA STORM WATER MANAGEMENT MODEL - VERSION 5.1 (Build 5.3.0.dev0)
  --------------------------------------------------------------

  WARNING 04: minimum elevation drop used for Conduit WS02004404WS02004405
  WARNING 03: negative offset ignored for Link YS02001904YS02001907
  
  *********************************************************
  NOTE: The summary statistics displayed in this report are
  based on results found at every computational time step,  
  not just on results from each reporting time step.
  *********************************************************
  
  ****************
  Analysis Options
  ****************
  Flow Units ............... LPS
  Process Models:
    Rainfall/Runoff ........ YES
    RDII ................... NO
    Snowmelt ............... NO
    Groundwater ............ NO
    Flow Routing ........... YES
    Ponding Allowed ........ NO
    Water Quality .......... NO
  Infiltration Method ...... HORTON
  Flow Routing Method ...... DYNWAVE
  Surcharge Method ......... EXTRAN
  Starting Date ............ 08/28/2015 08:00:00
  Ending Date .............. 08/28/2015 15:50:00
  Antecedent Dry Days ...... 8.0
  Report Time Step ......... 00:01:00
  Wet Time Step ............ 00:01:00
  Dry Time Step ............ 00:01:00
  Routing Time Step ........ 5.00 sec
  Variable Time Step ....... YES
  Maximum Trials ........... 8
  Number of Threads ........ 4
  Head Tolerance ........... 0.001500 m
  
  
  **************************        Volume         Depth
  Runoff Quantity Continuity     hectare-m            mm
  **************************     ---------       -------
  Total Precipitation ......         5.493        12.027
  Evaporation Loss .........         0.000         0.000
  Infiltration Loss ........         1.412         3.091
  Surface Runoff ...........         3.074         6.729
  Final Storage ............         1.009         2.209
  Continuity Error (%) .....        -0.014
  
  
  **************************        Volume        Volume
  Flow Routing Continuity        hectare-m      10^6 ltr
  **************************     ---------     ---------
  Dry Weather Inflow .......         0.616         6.165
  Wet Weather Inflow .......         3.072        30.724
  Groundwater Inflow .......         0.000         0.000
  RDII Inflow ..............         0.000         0.000
  External Inflow ..........         0.102         1.024
  External Outflow .........         1.869        18.693
  Flooding Loss ............         1.459        14.589
  Evaporation Loss .........         0.000         0.000
  Exfiltration Loss ........         0.000         0.000
  Initial Stored Volume ....         0.076         0.761
  Final Stored Volume ......         0.636         6.357
  Continuity Error (%) .....        -2.499
  
  
  *************************
  Highest Continuity Errors
  *************************
  Node HS02004842 (16.38%)
  Node YS02001884 (11.04%)
  Node JK-storage (-10.79%)
  Node YSB1171 (3.16%)
  Node HS02004817 (3.01%)
  
  
  ***************************
  Time-Step Critical Elements
  ***************************
  Link 3 (50.82%)
  Link WS02006252WS02006251 (43.17%)
  Link WS02006238WS02006235 (1.08%)
  
  
  ********************************
  Highest Flow Instability Indexes
  ********************************
  Link YS02163301YS02001633 (41)
  Link YS02163601YS02164001 (41)
  Link WS02006113WS02006111 (41)
  Link YS02001629YS02163301 (40)
  Link YS02001619YS02001622 (39)
  
  
  *************************
  Routing Time Step Summary
  *************************
  Minimum Time Step           :     0.50 sec
  Average Time Step           :     0.83 sec
  Maximum Time Step           :     5.00 sec
  Percent in Steady State     :    -0.00
  Average Iterations per Step :     4.63
  Percent Not Converging      :    21.03
  
  
  ***************************
  Subcatchment Runoff Summary
  ***************************
  
  ------------------------------------------------------------------------------------------------------------------------------
                            Total      Total      Total      Total     Imperv       Perv      Total       Total     Peak  Runoff
                           Precip      Runon       Evap      Infil     Runoff     Runoff     Runoff      Runoff   Runoff   Coeff
  Subcatchment                 mm         mm         mm         mm         mm         mm         mm    10^6 ltr      LPS
  ------------------------------------------------------------------------------------------------------------------------------
  sub0                      12.03       0.00       0.00       0.84       9.92       0.00       9.92        0.01     2.03   0.825
  sub1                      12.03       0.00       0.00       1.32       9.45       0.00       9.45        0.06    13.40   0.786
  sub2                      12.03       0.00       0.00       4.45       6.67       0.00       6.67        0.06    12.40   0.555
  sub3                      12.03       0.00       0.00       4.45       6.63       0.00       6.63        0.15    27.80   0.552
  sub4                      12.03       0.00       0.00       1.32       9.30       0.00       9.30        0.19    33.44   0.773
  sub5                      12.03       0.00       0.00       0.84       9.87       0.00       9.87        0.11    23.84   0.821
  sub7                      12.03       0.00       0.00       1.08       9.69       0.00       9.69        0.03     7.67   0.806
  sub8                      12.03       0.00       0.00       1.08       9.68       0.00       9.68        0.06    14.05   0.805
  sub9                      12.03       0.00       0.00       1.08       9.68       0.00       9.68        0.05    10.50   0.805
  sub10                     12.03       0.00       0.00       0.96       9.77       0.00       9.77        0.11    23.44   0.813
  sub11                     12.03       0.00       0.00       0.96       9.79       0.00       9.79        0.11    26.14   0.814
  sub12                     12.03       0.00       0.00       1.56       9.28       0.00       9.28        0.08    19.99   0.771
  sub14                     12.03       0.00       0.00       1.08       9.68       0.00       9.68        0.09    20.64   0.805
  sub15                     12.03       0.00       0.00       3.61       7.44       0.00       7.44        0.13    28.31   0.619
  sub16                     12.03       0.00       0.00       3.97       7.14       0.00       7.14        0.07    18.12   0.594
  sub17                     12.03       0.00       0.00       3.85       7.24       0.00       7.24        0.06    14.90   0.602
  sub22                     12.03       0.00       0.00       5.17       6.07       0.00       6.07        0.38    88.71   0.504
  sub23                     12.03       0.00       0.00       4.45       6.71       0.00       6.71        0.32    74.74   0.558
  sub60                     12.03       0.00       0.00       1.44       7.74       0.00       7.74        2.35   221.95   0.644
  sub61                     12.03       0.00       0.00       2.04       7.85       0.00       7.85        2.42   262.11   0.653
  sub62                     12.03       0.00       0.00       0.96       8.54       0.00       8.54        2.63   273.68   0.710
  sub63                     12.03       0.00       0.00       3.49       6.87       0.00       6.87        2.08   239.63   0.571
  sub64                     12.03       0.00       0.00       1.80       7.43       0.00       7.43        2.26   211.47   0.618
  sub65                     12.03       0.00       0.00       1.56       7.55       0.00       7.55        2.32   215.23   0.628
  sub66                     12.03       0.00       0.00       3.49       6.37       0.00       6.37        1.95   191.04   0.530
  sub67                     12.03       0.00       0.00       0.96       9.00       0.00       9.00        2.78   332.67   0.749
  sub68                     12.03       0.00       0.00       1.68       8.26       0.00       8.26        2.54   285.76   0.687
  sub69                     12.03       0.00       0.00       1.80       8.55       0.00       8.55        2.00   265.64   0.711
  sub70                     12.03       8.73       0.00       6.95      11.44       0.11      11.55        2.64   261.84   0.556
  sub71                     12.03       0.00       0.00       0.96       8.33       0.00       8.33        1.97   195.24   0.692
  sub72                     12.03       0.00       0.00       0.84       6.67       0.00       6.67        1.36   105.11   0.555
  sub73                     12.03      11.24       0.00       7.83      12.57       0.08      12.65        2.97   255.46   0.544
  sub74                     12.03       0.00       0.00       9.02       2.55       0.00       2.55        1.02   143.98   0.212
  
  
  ******************
  Node Depth Summary
  ******************
  
  ---------------------------------------------------------------------------------
                                 Average  Maximum  Maximum  Time of Max    Reported
                                   Depth    Depth      HGL   Occurrence   Max Depth
  Node                 Type       Meters   Meters   Meters  days hr:min      Meters
  ---------------------------------------------------------------------------------
  WS02001211           JUNCTION     0.62     0.74     5.57     0  01:57        0.74
  WS02001212           JUNCTION     0.35     0.47     5.53     0  01:57        0.47
  WS02001213           JUNCTION     0.59     0.73     5.50     0  01:56        0.73
  WS02003069           JUNCTION     0.42     0.59     5.17     0  01:56        0.59
  WS02003072           JUNCTION     0.49     0.65     5.02     0  01:56        0.65
  WS02003073           JUNCTION     0.29     0.40     4.46     0  01:57        0.40
  WS02003060           JUNCTION     0.38     0.52     5.45     0  01:55        0.52
  WS02003066           JUNCTION     0.23     0.33     5.88     0  01:52        0.33
  WS02003059           JUNCTION     0.66     0.79     5.48     0  01:56        0.79
  WS02003067           JUNCTION     0.57     0.74     6.06     0  01:50        0.74
  WS02004401           JUNCTION     0.69     0.97     6.97     0  01:48        0.97
  WS02004402           JUNCTION     0.72     0.99     6.95     0  01:48        0.99
  WS02004403           JUNCTION     0.74     0.99     6.92     0  01:49        0.99
  WS02004404           JUNCTION     0.81     1.05     6.90     0  01:49        1.05
  WS02004406           JUNCTION     0.82     1.03     6.86     0  01:49        1.03
  WS02004409           JUNCTION     0.50     0.75     6.52     0  01:51        0.75
  WS02004410           JUNCTION     0.52     0.76     6.48     0  01:52        0.76
  WS02004411           JUNCTION     0.53     0.76     6.44     0  01:52        0.76
  WS02004412           JUNCTION     0.55     0.76     6.40     0  01:52        0.76
  WS02004413           JUNCTION     0.70     0.91     6.38     0  01:53        0.91
  WS02004405           JUNCTION     0.81     1.04     6.89     0  01:49        1.04
  WS02006109           JUNCTION     0.77     1.10     7.72     0  01:45        1.09
  WS02006110           JUNCTION     0.76     1.02     7.61     0  01:45        1.01
  WS02006111           JUNCTION     0.22     0.35     7.06     0  01:47        0.35
  WS02006112           JUNCTION     0.86     1.20     7.09     0  02:08        1.18
  WS02006113           JUNCTION     0.35     0.51     7.40     0  01:45        0.51
  WS02006115           JUNCTION     0.58     0.88     7.02     0  01:48        0.88
  WS02006116           JUNCTION     0.66     0.96     7.00     0  01:48        0.95
  WS02006230           JUNCTION     0.74     1.19     7.93     0  01:42        1.18
  WS02006231           JUNCTION     0.49     0.85     7.97     0  01:43        0.82
  WS02006232           JUNCTION     0.63     0.96     8.00     0  01:43        0.93
  WS02006234           JUNCTION     0.54     0.87     8.03     0  01:42        0.85
  WS02006235           JUNCTION     0.57     0.88     8.04     0  01:43        0.86
  WS02006238           JUNCTION     0.59     0.90     8.05     0  01:45        0.89
  WS02006240           JUNCTION     0.47     0.78     8.08     0  01:44        0.78
  WS02006242           JUNCTION     0.52     0.83     8.10     0  01:45        0.82
  WS02006243           JUNCTION     0.39     0.70     8.12     0  01:45        0.69
  WS02006245           JUNCTION     0.36     0.66     8.15     0  01:44        0.66
  WS02006247           JUNCTION     0.37     0.68     8.18     0  01:48        0.67
  WS02006248           JUNCTION     0.32     0.59     8.18     0  01:48        0.59
  WS02006249           JUNCTION     0.35     0.59     8.19     0  01:48        0.58
  WS02006239           JUNCTION     0.54     0.86     8.07     0  01:43        0.84
  WS02006251           JUNCTION     0.33     0.56     8.23     0  01:46        0.56
  WS02006252           JUNCTION     0.27     0.35     8.59     0  01:35        0.35
  WS02006253           JUNCTION     0.35     0.59     8.23     0  01:46        0.59
  WS02006256           JUNCTION     1.09     2.35     9.28     0  00:00        1.21
  WS02004138           JUNCTION     0.13     0.17     7.42     0  00:00        0.17
  WS02004407           JUNCTION     0.23     0.33     6.64     0  01:49        0.33
  WS02006228           JUNCTION     0.77     1.16     7.81     0  01:44        1.15
  WS02006229           JUNCTION     0.75     1.17     7.86     0  01:45        1.17
  WS02006280           JUNCTION     0.07     0.19     8.46     0  01:42        0.19
  WS02006284           JUNCTION     0.38     0.54     8.94     0  01:42        0.54
  WS02006287           JUNCTION     0.11     0.28     9.23     0  01:42        0.28
  WSF200               JUNCTION     0.22     0.35     5.58     0  01:52        0.35
  HS02004901           JUNCTION     0.13     0.28    10.10     0  01:39        0.28
  HS02004881           JUNCTION     0.01     0.03     9.06     0  01:43        0.03
  HS02004876           JUNCTION     0.05     0.12     9.15     0  01:43        0.12
  HS02004870           JUNCTION     0.02     0.06     9.35     0  01:43        0.06
  HS02004862           JUNCTION     0.02     0.07     9.45     0  01:44        0.07
  HS02004856           JUNCTION     0.08     0.12     9.55     0  01:44        0.12
  HS02004852           JUNCTION     0.01     0.04     9.56     0  01:52        0.04
  HS02004848           JUNCTION     0.01     0.04     9.64     0  01:51        0.04
  HS02004842           JUNCTION     0.33     0.37     9.64     0  01:51        0.37
  HS02004837           JUNCTION     0.03     0.06     9.64     0  01:51        0.06
  HS02004830           JUNCTION     0.04     0.08     9.55     0  01:45        0.08
  HS02004824           JUNCTION     0.03     0.06     9.46     0  01:54        0.06
  HS02004817           JUNCTION     0.45     0.59     9.43     0  01:43        0.59
  HS02004807           JUNCTION     0.13     0.26     9.43     0  01:43        0.26
  HS02004802           JUNCTION     0.17     0.30     9.42     0  01:43        0.29
  HS02004799           JUNCTION     0.13     0.33     9.54     0  01:40        0.33
  HS02004792           JUNCTION     0.04     0.14     9.66     0  01:40        0.14
  HS02004788           JUNCTION     0.03     0.10    10.00     0  01:40        0.10
  HS02004785           JUNCTION     0.05     0.17    10.07     0  01:40        0.17
  HS02004777           JUNCTION     0.16     0.30    10.10     0  01:39        0.30
  HS02004770           JUNCTION     0.13     0.27    10.10     0  01:39        0.27
  HS02004480           JUNCTION     0.09     0.27     9.51     0  01:41        0.27
  HS02004479           JUNCTION     0.13     0.30     9.51     0  01:40        0.30
  HS02004478           JUNCTION     0.07     0.18     9.41     0  01:42        0.18
  YS02001745           JUNCTION     0.72     0.88     8.39     0  02:57        0.87
  YS02001748           JUNCTION     1.12     2.27     9.35     0  02:07        1.31
  YS02001751           JUNCTION     1.30     2.20     9.08     0  02:00        1.52
  YS02001754           JUNCTION     1.56     2.20     8.81     0  02:08        1.80
  YS02001762           JUNCTION     1.76     2.08     8.48     0  02:08        2.02
  YS02001765           JUNCTION     1.72     2.01     8.46     0  02:08        1.96
  YS02001767           JUNCTION     1.68     1.97     8.46     0  02:08        1.92
  YS02001770           JUNCTION     1.68     1.95     8.44     0  02:08        1.90
  YS02001774           JUNCTION     1.74     2.01     8.43     0  02:08        1.96
  YS02001779           JUNCTION     1.49     1.68     8.37     0  02:00        1.68
  YS02001882           JUNCTION     0.52     1.37     8.09     0  02:32        1.36
  YS02001884           JUNCTION     0.62     1.48     8.10     0  02:32        1.46
  YS02001759           JUNCTION     1.80     2.12     8.48     0  02:08        2.06
  YS02001887           JUNCTION     0.70     1.55     8.09     0  02:32        1.54
  YS02001890           JUNCTION     0.73     1.57     8.08     0  02:32        1.56
  YS02001898           JUNCTION     0.50     1.33     8.07     0  02:30        1.33
  YS02001901           JUNCTION     0.62     1.45     8.06     0  02:32        1.44
  YS02001904           JUNCTION     0.59     1.43     8.06     0  02:32        1.42
  YS02001907           JUNCTION     0.92     1.77     8.06     0  02:32        1.76
  YS02001910           JUNCTION     0.71     1.55     8.06     0  02:32        1.55
  YS02001915           JUNCTION     0.51     1.35     8.07     0  02:31        1.34
  YS02001918           JUNCTION     0.26     0.99     8.06     0  02:31        0.99
  YS02001619           JUNCTION     1.27     1.61     8.54     0  02:02        1.47
  YS02001629           JUNCTION     1.63     1.85     8.40     0  02:04        1.85
  YS02001641           JUNCTION     1.73     1.95     8.39     0  02:10        1.93
  YS02001644           JUNCTION     1.73     1.92     8.35     0  02:08        1.92
  YS02001652           JUNCTION     1.58     2.15     8.75     0  02:28        1.93
  YS02001655           JUNCTION     1.34     2.20     9.05     0  01:57        1.77
  YS02001920           JUNCTION     0.35     1.05     8.06     0  02:30        1.05
  YS02001923           JUNCTION     0.19     0.80     8.06     0  02:31        0.79
  YS02001926           JUNCTION     0.24     0.62     8.06     0  02:29        0.61
  YS02001929           JUNCTION     0.12     0.37     8.06     0  02:30        0.36
  YS02001658           JUNCTION     1.06     2.30     9.44     0  02:03        1.75
  YS02001661           JUNCTION     0.83     2.46     9.86     0  02:29        1.84
  YS02001664           JUNCTION     0.37     0.57     8.50     0  02:24        0.56
  YS02001622           JUNCTION     1.30     1.62     8.52     0  02:03        1.49
  YS02001633           JUNCTION     1.72     1.97     8.43     0  02:09        1.94
  YS02001649           JUNCTION     1.77     2.05     8.44     0  02:23        2.05
  YS02001757           JUNCTION     1.89     2.21     8.47     0  02:08        2.16
  YS02001895           JUNCTION     0.49     1.33     8.08     0  02:30        1.32
  YS02001625           JUNCTION     1.58     1.78     8.38     0  02:03        1.78
  YS02163301           JUNCTION     1.66     1.91     8.43     0  02:09        1.87
  YS02163601           JUNCTION     1.77     2.02     8.42     0  02:10        1.98
  YS02164001           JUNCTION     1.71     1.95     8.41     0  02:10        1.91
  YS02001647           JUNCTION     1.56     1.81     8.42     0  02:28        1.80
  YSB1154              JUNCTION     0.27     0.45     9.51     0  01:40        0.45
  YSB6556              JUNCTION     0.16     0.34     9.51     0  01:40        0.34
  YSB1174              JUNCTION     0.22     0.40     9.51     0  01:41        0.40
  YSB1171              JUNCTION     0.42     0.61     9.51     0  01:40        0.61
  YS02006553           JUNCTION     0.92     1.76     8.04     0  02:32        1.74
  YS02006561           JUNCTION     0.30     0.93     7.59     0  02:30        0.92
  YS02006556           JUNCTION     0.89     1.71     8.02     0  02:30        1.70
  YS02006558           JUNCTION     0.93     1.74     8.01     0  02:32        1.73
  YS02001783           JUNCTION     0.55     1.66     7.80     0  02:07        1.33
  YS02001784           JUNCTION     0.57     1.90     7.97     0  02:07        1.29
  YS02001786           JUNCTION     0.53     1.98     8.01     0  02:07        1.16
  YS02001788           JUNCTION     0.47     2.28     8.26     0  02:07        1.05
  YS02001790           JUNCTION     0.62     1.96     7.60     0  02:06        1.24
  YS02001791           JUNCTION     0.62     1.70     7.17     0  02:07        1.25
  YS02001793           JUNCTION     0.89     2.04     6.88     0  02:07        1.80
  WS02004139           JUNCTION     0.56     0.68     5.59     0  01:58        0.68
  WSC                  OUTFALL      0.29     0.40     1.07     0  01:57        0.40
  3                    OUTFALL      0.11     0.23     6.23     0  00:00        0.21
  4                    OUTFALL      0.01     0.09     7.09     0  01:48        0.08
  5                    OUTFALL      0.00     0.00     5.00     0  00:00        0.00
  JK-storage           STORAGE      3.21     5.80     6.60     0  02:07        5.80
  CC-storage           STORAGE      1.12     1.37     8.37     0  02:54        1.37
  XR-storage           STORAGE      6.87     7.72     5.72     0  02:24        7.72
  
  
  *******************
  Node Inflow Summary
  *******************
  
  -------------------------------------------------------------------------------------------------
                                  Maximum  Maximum                  Lateral       Total        Flow
                                  Lateral    Total  Time of Max      Inflow      Inflow     Balance
                                   Inflow   Inflow   Occurrence      Volume      Volume       Error
  Node                 Type           LPS      LPS  days hr:min    10^6 ltr    10^6 ltr     Percent
  -------------------------------------------------------------------------------------------------
  WS02001211           JUNCTION      7.35   293.17     0  02:09       0.207        6.02       0.482
  WS02001212           JUNCTION      0.00   293.88     0  02:10           0        5.99       0.276
  WS02001213           JUNCTION      0.00   294.43     0  02:10           0        5.98       0.314
  WS02003069           JUNCTION      0.32   960.34     0  01:56     0.00902        14.3       0.145
  WS02003072           JUNCTION      0.00   960.13     0  01:56           0        14.3       0.193
  WS02003073           JUNCTION      1.82   961.88     0  01:57      0.0514        14.3       0.205
  WS02003060           JUNCTION     16.53   960.37     0  01:55       0.466        14.3       0.140
  WS02003066           JUNCTION      0.00   655.52     0  01:53           0        7.91       0.040
  WS02003059           JUNCTION      0.00   295.29     0  02:09           0        5.96       0.511
  WS02003067           JUNCTION      0.00   655.52     0  01:53           0        7.91       0.089
  WS02004401           JUNCTION      0.00   660.98     0  01:48           0        8.09       0.204
  WS02004402           JUNCTION      0.00   659.74     0  01:48           0        8.07       0.198
  WS02004403           JUNCTION      0.00   659.99     0  01:48           0        8.06       0.184
  WS02004404           JUNCTION      0.16   659.59     0  01:49     0.00457        8.05       0.143
  WS02004406           JUNCTION      0.00   659.45     0  01:49           0        8.02       0.351
  WS02004409           JUNCTION      0.00   659.48     0  01:49           0        7.99       0.128
  WS02004410           JUNCTION      0.00   657.66     0  01:49           0        7.98       0.153
  WS02004411           JUNCTION      0.00   656.21     0  01:50           0        7.96       0.163
  WS02004412           JUNCTION      0.00   655.66     0  01:52           0        7.95       0.186
  WS02004413           JUNCTION      0.00   655.61     0  01:52           0        7.94       0.294
  WS02004405           JUNCTION      0.04   659.49     0  01:49     0.00107        8.04       0.218
  WS02006109           JUNCTION      1.23   649.23     0  01:45      0.0347        8.12       0.235
  WS02006110           JUNCTION      0.00   649.20     0  01:45           0         8.1       0.192
  WS02006111           JUNCTION      0.00   685.08     0  01:45           0        8.08       0.035
  WS02006112           JUNCTION     14.90   666.73     0  01:48      0.0621        8.14       0.278
  WS02006113           JUNCTION      0.00   655.35     0  01:45           0        8.09       0.077
  WS02006115           JUNCTION      0.00   667.43     0  01:46           0        8.12       0.174
  WS02006116           JUNCTION      0.00   664.75     0  01:48           0         8.1       0.175
  WS02006230           JUNCTION     10.28   338.13     0  02:43        0.29        6.26       0.205
  WS02006231           JUNCTION      0.00   327.30     0  02:43           0        5.97       0.061
  WS02006232           JUNCTION      0.00   327.21     0  02:43           0        5.98       0.209
  WS02006234           JUNCTION      0.00   327.04     0  02:43           0        5.99       0.067
  WS02006235           JUNCTION      0.00   327.06     0  02:43           0        6.02       0.134
  WS02006238           JUNCTION      0.00   242.64     0  02:43           0        3.52       0.136
  WS02006240           JUNCTION      0.00   243.95     0  02:42           0         3.5       0.142
  WS02006242           JUNCTION      0.00   243.14     0  02:42           0         3.5       0.177
  WS02006243           JUNCTION      0.00   250.31     0  02:42           0         3.5      -0.021
  WS02006245           JUNCTION      0.00   285.42     0  02:41           0         3.5       0.084
  WS02006247           JUNCTION      0.00   264.44     0  01:40           0         3.5       0.015
  WS02006248           JUNCTION      0.00   268.69     0  01:40           0         3.5      -0.014
  WS02006249           JUNCTION      0.00   278.50     0  01:54           0        3.61       0.032
  WS02006239           JUNCTION      0.00   242.66     0  02:43           0        3.51       0.169
  WS02006251           JUNCTION      0.08   281.07     0  01:45     0.00217        3.61      -0.002
  WS02006252           JUNCTION      0.00   200.00     0  02:10           0        3.25       0.002
  WS02006253           JUNCTION      2.03    76.41     0  01:43     0.00803        0.36      -0.108
  WS02006256           JUNCTION      0.00   600.00     0  00:00           0        6.85       0.036
  WS02004138           JUNCTION      0.00   285.00     0  01:50           0        5.84       0.075
  WS02004407           JUNCTION      0.00   660.04     0  01:49           0        7.99       0.060
  WS02006228           JUNCTION      0.00   648.01     0  01:45           0         8.1       0.153
  WS02006229           JUNCTION      0.00   649.08     0  01:43           0        8.11       0.130
  WS02006280           JUNCTION      0.00   366.27     0  01:42           0        1.87       0.003
  WS02006284           JUNCTION      0.10   366.30     0  01:42      0.0027        1.87       0.025
  WS02006287           JUNCTION      0.00   366.22     0  01:42           0        1.87       0.038
  WSF200               JUNCTION      0.00   655.54     0  01:53           0         7.9       0.035
  HS02004901           JUNCTION     18.12    18.12     0  01:36      0.0747      0.0749       2.401
  HS02004881           JUNCTION      7.67    74.61     0  01:43      0.0326       0.352       0.121
  HS02004876           JUNCTION     13.40    67.33     0  01:43      0.0628        0.32       0.168
  HS02004870           JUNCTION     14.05    54.07     0  01:43      0.0618       0.257       0.041
  HS02004862           JUNCTION     12.60    40.55     0  01:44      0.0678       0.196       0.087
  HS02004856           JUNCTION     10.50    27.98     0  01:43      0.0465       0.129       1.124
  HS02004852           JUNCTION      0.00    17.93     0  01:51           0      0.0829       0.064
  HS02004848           JUNCTION     27.80    27.80     0  01:53       0.149       0.149       0.029
  HS02004842           JUNCTION      0.00    10.09     0  01:58           0      0.0794      19.593
  HS02004837           JUNCTION     29.79    38.22     0  01:51       0.287       0.353       0.230
  HS02004830           JUNCTION      0.15    38.36     0  01:51     0.00423       0.344       0.360
  HS02004824           JUNCTION     33.49    71.74     0  01:54       0.195       0.538       0.100
  HS02004817           JUNCTION      0.60    72.33     0  01:54      0.0169       0.554       3.102
  HS02004807           JUNCTION     26.14    95.63     0  01:52       0.114       0.651       0.672
  HS02004802           JUNCTION      0.00    95.92     0  01:53           0       0.649       0.613
  HS02004799           JUNCTION     20.64   230.90     0  01:40      0.0921        1.05       0.259
  HS02004792           JUNCTION     88.99   210.32     0  01:39       0.391       0.955       0.041
  HS02004788           JUNCTION     29.98   122.04     0  01:40       0.175       0.565       0.068
  HS02004785           JUNCTION      0.15    92.14     0  01:39     0.00423       0.391       0.125
  HS02004777           JUNCTION      0.03    92.19     0  01:38    0.000846       0.391       1.344
  HS02004770           JUNCTION     74.74    92.54     0  01:38        0.32       0.393       0.790
  HS02004480           JUNCTION      0.00   273.94     0  01:41           0        1.24       0.088
  HS02004479           JUNCTION      0.00    43.17     0  01:41           0       0.201       0.365
  HS02004478           JUNCTION      0.00   366.17     0  01:42           0        1.87       0.020
  YS02001745           JUNCTION    221.95   414.18     0  02:07        2.35        2.36       0.493
  YS02001748           JUNCTION      0.04   598.00     0  02:07     0.00127        2.35       0.949
  YS02001751           JUNCTION      0.01   432.63     0  02:00     0.00031        2.31       1.019
  YS02001754           JUNCTION      0.26   247.34     0  02:08     0.00733         2.3       1.069
  YS02001762           JUNCTION      0.00   279.40     0  02:12           0        1.84       1.151
  YS02001765           JUNCTION      0.00   277.97     0  02:12           0        1.84       1.333
  YS02001767           JUNCTION      0.54   276.73     0  02:12      0.0151        1.86       1.946
  YS02001770           JUNCTION    273.83   300.25     0  02:59        2.63        2.69       1.173
  YS02001774           JUNCTION      0.00   300.98     0  02:59           0       0.869       2.969
  YS02001779           JUNCTION      0.01   301.54     0  02:59    0.000141       0.837       1.864
  YS02001882           JUNCTION      0.00    36.52     0  02:08           0      0.0162      14.541
  YS02001884           JUNCTION      0.00    63.09     0  02:08           0      0.0521      12.405
  YS02001759           JUNCTION    262.15   541.51     0  02:12        2.42        4.18       0.546
  YS02001887           JUNCTION    333.12   352.25     0  02:09        2.79        2.82       0.288
  YS02001890           JUNCTION      0.00   349.27     0  02:09           0        2.77       0.317
  YS02001898           JUNCTION      0.00   351.27     0  02:09           0        2.76       0.096
  YS02001901           JUNCTION      0.00   339.83     0  02:14           0        2.76       0.237
  YS02001904           JUNCTION      0.00   339.30     0  02:14           0        2.76       0.215
  YS02001907           JUNCTION      0.00   618.85     0  02:34           0        6.14       0.391
  YS02001910           JUNCTION      0.00   320.02     0  03:05           0        3.39       0.336
  YS02001915           JUNCTION    195.26   315.18     0  02:53        1.97         3.4       0.163
  YS02001918           JUNCTION      0.00   143.19     0  02:50           0        1.43       0.123
  YS02001619           JUNCTION    191.04   191.04     0  02:29        1.95        1.95       0.622
  YS02001629           JUNCTION      0.00   221.17     0  02:00           0        1.79       1.611
  YS02001641           JUNCTION      0.00   402.03     0  02:05           0        4.01       0.525
  YS02001644           JUNCTION    211.51  1001.24     0  02:57        2.26        8.88       0.293
  YS02001652           JUNCTION      0.00   302.65     0  02:04           0        2.03       1.115
  YS02001655           JUNCTION      0.15   483.74     0  01:57     0.00434        2.06       1.231
  YS02001920           JUNCTION      2.87   140.01     0  02:50      0.0809        1.44       0.193
  YS02001923           JUNCTION      0.04   118.61     0  02:36     0.00106        1.36       0.049
  YS02001926           JUNCTION      0.05   132.05     0  02:51     0.00147        1.36       0.226
  YS02001929           JUNCTION    105.11   105.11     0  02:59        1.36        1.36       0.036
  YS02001658           JUNCTION      0.00   649.87     0  02:03           0        2.09       1.122
  YS02001661           JUNCTION      0.00   641.85     0  02:24           0        2.87      -0.184
  YS02001664           JUNCTION    239.63   372.28     0  02:22        2.08        2.87       0.266
  YS02001622           JUNCTION      0.00   197.10     0  02:01           0        1.94       1.653
  YS02001633           JUNCTION    215.43   401.53     0  02:05        2.33        4.07       0.790
  YS02001649           JUNCTION      0.00   851.18     0  02:19           0        5.07       0.731
  YS02001757           JUNCTION      0.00  1577.82     0  02:19           0        8.79       1.059
  YS02001895           JUNCTION      0.00   349.78     0  02:09           0        2.77       0.181
  YS02001625           JUNCTION      0.00   221.15     0  02:00           0        1.91       2.079
  YS02163301           JUNCTION      0.00   214.56     0  02:02           0        1.78       1.359
  YS02163601           JUNCTION      0.11   401.64     0  02:05      0.0031        4.02       0.749
  YS02164001           JUNCTION      0.00   401.65     0  02:05           0           4       0.494
  YS02001647           JUNCTION      0.00   605.98     0  02:20           0        4.19       0.662
  YSB1154              JUNCTION     23.84    23.84     0  01:41       0.112       0.113       1.299
  YSB6556              JUNCTION      0.00    24.02     0  01:41           0       0.113       1.116
  YSB1174              JUNCTION     19.99    19.99     0  01:36       0.081      0.0815       1.597
  YSB1171              JUNCTION      0.00    43.60     0  01:40           0         0.2       3.265
  YS02006553           JUNCTION      0.00   619.15     0  02:34           0        6.13       0.255
  YS02006561           JUNCTION      0.00   897.60     0  02:31           0        8.64       0.007
  YS02006556           JUNCTION      0.00   618.77     0  02:34           0        6.14       0.180
  YS02006558           JUNCTION    286.64   897.96     0  02:31        2.56        8.67       0.059
  YS02001783           JUNCTION      0.00   897.78     0  02:31           0        8.64       0.026
  YS02001784           JUNCTION      1.06   898.81     0  02:31      0.0299        8.66       0.040
  YS02001786           JUNCTION      0.06   898.89     0  02:31     0.00159        8.66       0.037
  YS02001788           JUNCTION      0.07   898.97     0  02:31       0.002        8.66       0.020
  YS02001790           JUNCTION      0.15   899.13     0  02:31     0.00437        8.66       0.028
  YS02001791           JUNCTION      0.00   899.11     0  02:31           0        8.66       0.010
  YS02001793           JUNCTION      0.00   899.20     0  02:31           0        8.66       0.002
  WS02004139           JUNCTION      0.32   290.33     0  00:00     0.00905        5.85       0.557
  WSC                  OUTFALL       0.00   961.84     0  01:57           0        14.3       0.000
  3                    OUTFALL       0.00   597.65     0  00:00           0        4.32       0.000
  4                    OUTFALL       0.00    76.38     0  01:48           0       0.114       0.000
  5                    OUTFALL       0.00     0.00     0  00:00           0           0       0.000 ltr
  JK-storage           STORAGE       0.00   899.17     0  02:31           0        8.81      -9.742
  CC-storage           STORAGE       0.00  1577.56     0  02:19           0        7.15       0.916
  XR-storage           STORAGE     560.10   560.10     0  02:30        9.63        10.2      -0.002
  
  
  **********************
  Node Surcharge Summary
  **********************
  
  Surcharging occurs when water rises above the top of the highest conduit.
  ---------------------------------------------------------------------
                                               Max. Height   Min. Depth
                                   Hours       Above Crown    Below Rim
  Node                 Type      Surcharged         Meters       Meters
  ---------------------------------------------------------------------
  WS02004404           JUNCTION        0.49          0.055        2.725
  WS02004406           JUNCTION        0.32          0.028        2.422
  WS02004405           JUNCTION        0.40          0.042        2.758
  WS02006109           JUNCTION        1.83          0.283        1.537
  WS02006110           JUNCTION        0.93          0.112        1.738
  WS02006112           JUNCTION        1.20          0.204        1.476
  WS02006230           JUNCTION        0.44          0.106        1.464
  WS02006231           JUNCTION        0.58          0.139        1.391
  WS02006232           JUNCTION        1.54          0.260        1.220
  WS02006234           JUNCTION        0.82          0.149        1.091
  WS02006235           JUNCTION        1.05          0.170        1.120
  WS02006238           JUNCTION        1.16          0.183        1.247
  WS02006240           JUNCTION        0.53          0.074        1.316
  WS02006242           JUNCTION        0.75          0.099        0.721
  WS02006239           JUNCTION        0.75          0.117        1.173
  WS02006256           JUNCTION        0.01          1.050        0.000
  WS02006228           JUNCTION        1.80          0.334        1.866
  YS02001748           JUNCTION        5.58          1.190        0.000
  YS02001751           JUNCTION        5.77          1.200        0.000
  YS02001754           JUNCTION        5.97          1.150        0.000
  YS02001762           JUNCTION        6.15          1.077        0.073
  YS02001765           JUNCTION        6.13          1.010        0.090
  YS02001767           JUNCTION        6.12          0.974        0.056
  YS02001770           JUNCTION        6.11          0.920        0.000
  YS02001774           JUNCTION        6.14          1.012        0.038
  YS02001779           JUNCTION        5.95          0.680        0.000
  YS02001882           JUNCTION        0.87          0.371        0.459
  YS02001884           JUNCTION        0.91          0.418        0.452
  YS02001759           JUNCTION        6.15          1.118        0.092
  YS02001887           JUNCTION        1.03          0.500        0.450
  YS02001890           JUNCTION        1.07          0.525        0.235
  YS02001898           JUNCTION        0.78          0.301        0.439
  YS02001901           JUNCTION        0.99          0.454        0.416
  YS02001904           JUNCTION        0.95          0.429        0.421
  YS02001907           JUNCTION        1.68          0.758        0.192
  YS02001910           JUNCTION        1.12          0.553        0.547
  YS02001915           JUNCTION        0.84          0.350        0.650
  YS02001619           JUNCTION        5.78          0.610        0.000
  YS02001629           JUNCTION        5.79          0.470        0.000
  YS02001641           JUNCTION        6.13          0.952        0.148
  YS02001644           JUNCTION        6.13          0.920        0.000
  YS02001652           JUNCTION        6.03          1.125        0.005
  YS02001655           JUNCTION        5.81          1.200        0.000
  YS02001920           JUNCTION        0.21          0.048        1.092
  YS02001658           JUNCTION        5.63          1.300        0.000
  YS02001661           JUNCTION        0.24          1.390        0.000
  YS02001622           JUNCTION        5.82          0.620        0.000
  YS02001633           JUNCTION        6.12          0.951        0.109
  YS02001649           JUNCTION        6.14          1.050        0.000
  YS02001757           JUNCTION        6.19          1.210        0.000
  YS02001895           JUNCTION        0.81          0.330        0.420
  YS02001625           JUNCTION        6.09          0.780        0.000
  YS02163301           JUNCTION        6.11          0.910        0.120
  YS02163601           JUNCTION        6.15          1.024        0.056
  YS02164001           JUNCTION        6.12          0.954        0.146
  YS02001647           JUNCTION        6.06          0.806        0.094
  YS02006553           JUNCTION        1.75          0.760        0.430
  YS02006561           JUNCTION        0.54          0.126        1.024
  YS02006556           JUNCTION        1.42          0.667        0.683
  YS02006558           JUNCTION        1.37          0.643        0.757
  YS02001783           JUNCTION        1.32          0.863        0.737
  YS02001784           JUNCTION        1.38          1.099        0.391
  YS02001786           JUNCTION        1.33          1.181        0.249
  YS02001788           JUNCTION        1.32          1.480        0.000
  YS02001790           JUNCTION        2.70          1.157        0.000
  YS02001791           JUNCTION        2.82          0.902        1.018
  YS02001793           JUNCTION        3.02          1.045        1.555
  
  
  *********************
  Node Flooding Summary
  *********************
  
  Flooding refers to all water that overflows a node, whether it ponds or not.
  --------------------------------------------------------------------------
                                                             Total   Maximum
                                 Maximum   Time of Max       Flood    Ponded
                        Hours       Rate    Occurrence      Volume     Depth
  Node                 Flooded       LPS   days hr:min    10^6 ltr    Meters
  --------------------------------------------------------------------------
  WS02006256              0.01    406.11      0  00:00       0.001     0.000
  YS02001748              0.01    246.93      0  02:08       0.000     0.000
  YS02001751              0.01    140.48      0  02:00       0.000     0.000
  YS02001754              0.01     16.99      0  02:08       0.000     0.000
  YS02001770              0.01      3.70      0  02:08       0.000     0.000
  YS02001779              2.85    301.40      0  02:59       0.816     0.000
  YS02001619              0.01     33.77      0  02:06       0.000     0.000
  YS02001629              0.01     33.91      0  02:08       0.001     0.000
  YS02001644              5.48   1001.08      0  02:57       7.294     0.000
  YS02001655              0.01    196.32      0  01:57       0.000     0.000
  YS02001658              0.01    296.71      0  02:03       0.000     0.000
  YS02001661              0.01    128.36      0  02:29       0.000     0.000
  YS02001622              0.01     34.19      0  02:03       0.000     0.000
  YS02001649              0.09     45.94      0  02:28       0.004     0.000
  YS02001757              0.01     19.44      0  02:08       0.000     0.000
  YS02001625              0.85     48.05      0  02:31       0.097     0.000
  YS02001788              0.01     84.82      0  02:07       0.000     0.000
  YS02001790              0.01    116.94      0  02:06       0.000     0.000
  JK-storage              2.39    599.15      0  02:31       2.915     0.000
  XR-storage              5.25    465.10      0  02:30       3.461     0.000
  
  
  **********************
  Storage Volume Summary
  **********************
  
  --------------------------------------------------------------------------------------------------
                         Average     Avg  Evap Exfil       Maximum     Max    Time of Max    Maximum
                          Volume    Pcnt  Pcnt  Pcnt        Volume    Pcnt     Occurrence    Outflow
  Storage Unit           1000 m3    Full  Loss  Loss       1000 m3    Full    days hr:min        LPS
  --------------------------------------------------------------------------------------------------
  JK-storage               0.161      55     0     0         0.291     100       0  02:07     600.00
  CC-storage               3.115      20     0     0         3.828      24       0  02:54     200.00
  XR-storage               0.824      89     0     0         0.926     100       0  02:24     285.00
  
  
  ***********************
  Outfall Loading Summary
  ***********************
  
  -----------------------------------------------------------
                         Flow       Avg       Max       Total
                         Freq      Flow      Flow      Volume
  Outfall Node           Pcnt       LPS       LPS    10^6 ltr
  -----------------------------------------------------------
  WSC                   99.99    557.08    961.84      14.258
  3                     96.51    200.13    597.65       4.322
  4                     17.44     32.80     76.38       0.114
  5                      0.00      0.00      0.00       0.000
  -----------------------------------------------------------
  System                53.49    790.00   1481.76      18.693
  
  
  ********************
  Link Flow Summary
  ********************
  
  -----------------------------------------------------------------------------
                                 Maximum  Time of Max   Maximum    Max/    Max/
                                  |Flow|   Occurrence   |Veloc|    Full    Full
  Link                 Type          LPS  days hr:min     m/sec    Flow   Depth
  -----------------------------------------------------------------------------
  WS02003066WSF200     CONDUIT    655.54     0  01:53      2.82    0.11    0.26
  WS02006287WS02006284 CONDUIT    366.21     0  01:42      1.96    0.17    0.29
  WS02006284WS02006280 CONDUIT    366.27     0  01:42      2.20    0.15    0.26
  WS02006280WS02006229 CONDUIT    366.28     0  01:42      3.55    0.08    0.19
  WS02006229WS02006228 CONDUIT    648.01     0  01:45      1.29    2.15    1.00
  WS02006256WS02006235 CONDUIT    177.52     0  00:01      2.73    1.88    1.00
  WS02006253WS02006251 CONDUIT     81.00     0  01:45      0.58    0.24    0.81
  WS02006252WS02006251 CONDUIT    200.95     0  01:35      1.97    0.74    0.76
  WS02006251WS02006249 CONDUIT    278.50     0  01:54      1.03    0.80    0.82
  WS02006249WS02006248 CONDUIT    268.69     0  01:40      1.11    1.47    0.82
  WS02006248WS02006247 CONDUIT    264.44     0  01:40      1.07    0.58    0.89
  WS02006247WS02006245 CONDUIT    285.42     0  02:41      1.03    2.26    0.93
  WS02006245WS02006243 CONDUIT    250.31     0  02:42      1.06    0.74    0.96
  WS02006243WS02006242 CONDUIT    243.14     0  02:42      0.83    0.52    1.00
  WS02006242WS02006240 CONDUIT    243.95     0  02:42      0.67    0.97    1.00
  WS02006240WS02006239 CONDUIT    242.66     0  02:43      0.68    0.76    1.00
  WS02006239WS02006238 CONDUIT    242.64     0  02:43      0.69    0.78    1.00
  WS02006238WS02006235 CONDUIT    242.61     0  02:43      1.32    0.54    1.00
  WS02006235WS02006234 CONDUIT    327.04     0  02:43      0.94    3.45    1.00
  WS02006234WS02006232 CONDUIT    327.21     0  02:43      1.17    0.66    1.00
  WS02006232WS02006231 CONDUIT    327.30     0  02:43      0.94    0.69    1.00
  WS02006231WS02006230 CONDUIT    327.85     0  02:43      1.29    4.97    1.00
  WS02006230WS02006229 CONDUIT    338.42     0  02:46      0.88    7.53    1.00
  WS02006228WS02006109 CONDUIT    648.00     0  01:45      1.29    2.83    1.00
  WS02006116WS02004401 CONDUIT    660.98     0  01:48      0.85    0.91    0.96
  WS02006115WS02006116 CONDUIT    664.75     0  01:48      0.94    0.85    0.89
  WS02006113WS02006111 CONDUIT    685.08     0  01:45      2.61    0.82    0.53
  WS02006112WS02006115 CONDUIT    667.43     0  01:46      0.89    0.39    0.93
  WS02006111WS02006112 CONDUIT    653.62     0  01:48      1.72    0.31    0.71
  WS02006110WS02006113 CONDUIT    655.35     0  01:45      1.49    0.60    0.82
  WS02006109WS02006110 CONDUIT    649.20     0  01:45      1.29    1.25    1.00
  WS02004411WS02004412 CONDUIT    655.66     0  01:52      1.03    0.93    0.76
  WS02004401WS02004402 CONDUIT    659.74     0  01:48      0.85    0.79    0.98
  WS02004413WS02003067 CONDUIT    655.52     0  01:53      1.24    0.28    0.64
  WS02004412WS02004413 CONDUIT    655.61     0  01:52      0.94    0.44    0.84
  WS02004410WS02004411 CONDUIT    656.21     0  01:50      1.03    0.90    0.76
  WS02004409WS02004410 CONDUIT    657.66     0  01:49      1.05    0.85    0.75
  WS02004407WS02004409 CONDUIT    659.48     0  01:49      1.58    0.23    0.54
  WS02004406WS02004407 CONDUIT    660.04     0  01:49      1.19    0.29    0.66
  WS02004405WS02004406 CONDUIT    659.45     0  01:49      0.84    1.30    1.00
  WS02004404WS02004405 CONDUIT    659.45     0  01:49      0.84    6.46    1.00
  WS02004403WS02004404 CONDUIT    659.43     0  01:49      0.84    0.48    1.00
  WS02004402WS02004403 CONDUIT    659.99     0  01:48      0.84    0.95    0.99
  WS02004139WS02001211 CONDUIT    285.82     0  02:09      0.80    0.36    0.55
  WS02004138WS02004139 CONDUIT    290.01     0  00:00      3.34    0.06    0.40
  WS02003067WS02003066 CONDUIT    655.52     0  01:53      1.35    0.21    0.45
  WS02001213WS02003059 CONDUIT    295.29     0  02:09      0.80    0.49    0.75
  WS02001212WS02001213 CONDUIT    294.43     0  02:10      1.19    0.45    0.44
  WS02001211WS02001212 CONDUIT    293.88     0  02:10      0.67    0.22    0.60
  WS02003072WS02003073 CONDUIT    960.06     0  01:57      1.74    2.07    0.49
  WS02003069WS02003072 CONDUIT    960.13     0  01:56      1.63    0.46    0.52
  WS02003060WS02003069 CONDUIT    960.02     0  01:56      1.88    0.38    0.46
  WS02003059WS02003060 CONDUIT    296.44     0  02:09      0.82    0.19    0.66
  HS02004901HS02004770 CONDUIT     17.82     0  01:38      0.06    0.07    0.40
  HS02004876HS02004881 CONDUIT     67.33     0  01:43      0.89    0.72    0.11
  HS02004870HS02004876 CONDUIT     54.05     0  01:43      0.61    0.04    0.13
  HS02004842HS02004848 CONDUIT     10.09     0  01:58      0.05    0.01    0.30
  HS02004837HS02004842 CONDUIT     10.33     0  02:00      0.41    0.01    0.31
  HS02004830HS02004837 CONDUIT     38.21     0  01:51      0.54    0.04    0.10
  HS02004824HS02004830 CONDUIT     38.37     0  01:52      0.57    0.05    0.10
  HS02004817HS02004824 CONDUIT     71.73     0  01:54      0.22    0.03    0.46
  HS02004770HS02004777 CONDUIT     92.16     0  01:38      0.32    0.17    0.41
  HS02004799HS02004480 CONDUIT    230.85     0  01:40      0.78    0.29    0.42
  HS02004792HS02004799 CONDUIT    210.29     0  01:40      0.89    0.13    0.34
  HS02004788HS02004792 CONDUIT    122.00     0  01:40      1.02    0.08    0.17
  HS02004785HS02004788 CONDUIT     92.09     0  01:40      0.67    0.69    0.20
  HS02004777HS02004785 CONDUIT     91.99     0  01:39      0.39    0.11    0.34
  HS02004480HS02004478 CONDUIT    273.63     0  01:41      1.21    1.15    0.32
  HS02004479HS02004480 CONDUIT     43.48     0  01:42      0.30    0.04    0.41
  HS02004862HS02004870 CONDUIT     40.54     0  01:45      0.62    0.04    0.09
  HS02004848HS02004852 CONDUIT     17.93     0  01:51      0.42    0.02    0.06
  HS02004856HS02004862 CONDUIT     27.96     0  01:44      0.46    0.03    0.09
  HS02004852HS02004856 CONDUIT     17.92     0  01:52      0.22    0.02    0.12
  HS02004802HS02004478 CONDUIT     96.20     0  01:53      0.42    0.08    0.34
  HS02004478WS02006287 CONDUIT    366.22     0  01:42      1.67    0.10    0.24
  HS02004817HS02004807 CONDUIT     72.77     0  01:55      0.17    0.04    0.61
  HS02004807HS02004802 CONDUIT     95.92     0  01:53      0.36    0.18    0.39
  YS02001759YS02001757 CONDUIT    542.41     0  02:12      0.69    0.39    1.00
  YS02001762YS02001759 CONDUIT    280.79     0  02:12      0.36    0.32    1.00
  YS02001765YS02001762 CONDUIT    279.40     0  02:12      0.36    0.26    1.00
  YS02001770YS02001767 CONDUIT    276.19     0  02:12      0.42    1.09    1.00
  YS02001774YS02001770 CONDUIT    300.98     0  02:59      0.38    0.19    1.00
  YS02001779YS02001774 CONDUIT    301.53     0  02:59      0.38    0.15    1.00
  YS02001649YS02001757 CONDUIT    851.33     0  02:19      1.08    0.52    1.00
  YS02001767YS02001765 CONDUIT    277.97     0  02:12      0.38    0.35    1.00
  YS02006561YS02001783 CONDUIT    897.78     0  02:31      2.14    0.46    1.00
  YS02001783YS02001784 CONDUIT    897.75     0  02:31      1.79    1.24    1.00
  YS02001784YS02001785 CONDUIT    898.83     0  02:31      1.82    2.09    1.00
  YS02001788YS02001790 CONDUIT    898.97     0  02:31      2.37    0.66    1.00
  YS02001790YS02001791 CONDUIT    899.11     0  02:31      2.91    0.98    1.00
  YS02001791YS02001793 CONDUIT    899.20     0  02:31      5.80    0.39    1.00
  YS02001910YS02001907 CONDUIT    320.12     0  03:05      0.49    0.18    1.00
  YS02001786YS02001788 CONDUIT    898.90     0  02:31      2.26    1.73    1.00
  YS02001915YS02001910 CONDUIT    320.02     0  03:05      0.58    0.16    1.00
  YS02001918YS02001915 CONDUIT    143.67     0  03:07      0.44    0.08    1.00
  YS02001923YS02001920 CONDUIT    137.14     0  02:50      0.68    0.06    0.90
  YS02001926YS02001923 CONDUIT    118.57     0  02:36      0.78    0.17    0.60
  YS02001929YS02001926 CONDUIT    132.00     0  02:51      0.83    0.06    0.49
  YS02001920YS02001918 CONDUIT    143.19     0  02:50      0.67    0.14    1.00
  YS02001629YS02163301 CONDUIT    214.56     0  02:02      0.27    0.26    1.00
  YS02001619YS02001622 CONDUIT    197.10     0  02:01      0.73    0.29    1.00
  YS02001622YS02001625 CONDUIT    221.15     0  02:00      0.36    0.12    1.00
  YS02001625YS02001629 CONDUIT    221.17     0  02:00      0.30    0.11    1.00
  YS02163301YS02001633 CONDUIT    214.40     0  02:02      0.27    0.20    1.00
  YS02163601YS02164001 CONDUIT    401.65     0  02:05      0.51    0.36    1.00
  YS02164001YS02001641 CONDUIT    402.03     0  02:05      0.51    0.55    1.00
  YS02001641YS02001644 CONDUIT    401.95     0  02:05      0.51    1.30    1.00
  YS02001647YS02001649 CONDUIT    606.11     0  02:20      0.77    0.32    1.00
  YS02006553YS02006556 CONDUIT    618.77     0  02:34      0.79    0.53    1.00
  YS02006556YS02006558 CONDUIT    618.92     0  02:34      0.79    0.49    1.00
  YSB6556YSB1171       CONDUIT     24.43     0  01:43      0.09    0.03    0.68
  YS02001907YS02006553 CONDUIT    619.15     0  02:34      0.69    0.73    1.00
  YS02006558YS02006561 CONDUIT    897.60     0  02:31      3.31    1.98    1.00
  YS02001633YS02163601 CONDUIT    401.53     0  02:05      0.51    0.42    1.00
  YS02001644YS02001647 CONDUIT    605.98     0  02:20      0.77    0.36    1.00
  YS02001745YS02001748 CONDUIT    597.96     0  02:07      1.65    0.23    0.94
  YS02001748YS02001751 CONDUIT    432.62     0  02:00      1.23    0.22    1.00
  YS02001751YS02001754 CONDUIT    247.08     0  02:08      1.05    0.12    1.00
  YS02001754YS02001757 CONDUIT    246.68     0  02:07      0.33    0.10    1.00
  YS02001882YS02001884 CONDUIT     36.52     0  02:08      0.15    0.04    1.00
  YS02001884YS02001887 CONDUIT     63.09     0  02:08      0.11    0.08    1.00
  YS02001890YS02001895 CONDUIT    349.78     0  02:09      0.47    0.16    1.00
  YS02001895YS02001898 CONDUIT    351.27     0  02:09      0.58    0.61    1.00
  YS02001898YS02001901 CONDUIT    339.83     0  02:14      0.50    0.22    1.00
  YS02001901YS02001904 CONDUIT    339.30     0  02:14      0.47    0.53    1.00
  YS02001904YS02001907 CONDUIT    339.66     0  02:14      0.43    0.12    1.00
  YS02001887YS02001890 CONDUIT    349.27     0  02:09      0.44    0.60    1.00
  YS02001652YS02001649 CONDUIT    302.80     0  02:04      0.61    0.15    1.00
  YS02001655YS02001652 CONDUIT    302.65     0  02:04      1.11    0.15    1.00
  YS02001658YS02001655 CONDUIT    483.59     0  01:57      1.42    0.21    1.00
  YS02001661YS02001658 CONDUIT    649.87     0  02:03      1.73    0.26    1.00
  YS02001664YS02001661 CONDUIT    641.85     0  02:24      1.63    0.20    0.72
  YSB1154YSB6556       CONDUIT     24.02     0  01:41      0.16    0.04    0.57
  YSB1174YSB1171       CONDUIT     20.02     0  01:36      0.07    0.03    0.68
  YSB1171HS02004479    CONDUIT     43.17     0  01:41      0.54    0.03    0.54
  HS02004881HS02006253 CONDUIT     74.61     0  01:43      2.04    0.01    0.20
  YS02001793JiankangQianchi CONDUIT    899.17     0  02:31     16.38    0.07    1.00
  YS02001757CaochengTiaoxuchi CONDUIT   1577.56     0  02:19      2.50    0.69    1.00
  WSF200WS02003060     CONDUIT    655.79     0  01:52      1.89    0.15    0.36
  1                    CONDUIT    961.84     0  01:57      3.29    0.33    0.40
  2                    CONDUIT     76.38     0  01:48      4.49    0.18    0.29
  3                    CONDUIT    597.65     0  00:00     10.05    0.95    0.86
  4                    CONDUIT      0.00     0  00:00      0.00    0.00    0.00
  CC-Pump-1            PUMP       200.00     0  01:35              1.00
  CC-Pump-2            PUMP       200.00     0  02:20              1.00
  JK-Pump-1            PUMP       300.00     0  00:00              1.00
  JK-Pump-2            PUMP       300.00     0  00:00              1.00
  XR-Pump-1            PUMP        95.00     0  02:00              1.00
  XR-Pump-2            PUMP        95.00     0  00:00              1.00
  XR-Pump-3            PUMP        95.00     0  00:00              1.00
  XR-Pump-4            PUMP        95.00     0  00:00              1.00
  
  
  ***************************
  Flow Classification Summary
  ***************************
  
  -------------------------------------------------------------------------------------
                      Adjusted    ---------- Fraction of Time in Flow Class ---------- 
                       /Actual         Up    Down  Sub   Sup   Up    Down  Norm  Inlet 
  Conduit               Length    Dry  Dry   Dry   Crit  Crit  Crit  Crit  Ltd   Ctrl  
  -------------------------------------------------------------------------------------
  WS02003066WSF200        1.00   0.07  0.00  0.00  0.00  0.93  0.00  0.00  0.64  0.00
  WS02006287WS02006284    1.00   0.03  0.01  0.00  0.57  0.39  0.00  0.00  0.72  0.00
  WS02006284WS02006280    1.00   0.04  0.00  0.00  0.00  0.00  0.00  0.96  0.00  0.00
  WS02006280WS02006229    1.00   0.04  0.00  0.00  0.00  0.00  0.00  0.96  0.00  0.00
  WS02006229WS02006228    1.00   0.00  0.00  0.00  0.98  0.00  0.00  0.02  0.00  0.00
  WS02006256WS02006235    1.00   0.00  0.00  0.00  0.99  0.01  0.00  0.00  0.00  0.00
  WS02006253WS02006251    1.00   0.02  0.01  0.00  0.96  0.00  0.00  0.00  0.00  0.00
  WS02006252WS02006251    1.00   0.06  0.00  0.00  0.00  0.00  0.94  0.00  0.00  0.00
  WS02006251WS02006249    1.00   0.00  0.00  0.00  1.00  0.00  0.00  0.00  0.38  0.00
  WS02006249WS02006248    1.00   0.00  0.02  0.00  0.76  0.00  0.22  0.00  0.00  0.00
  WS02006248WS02006247    1.00   0.02  0.00  0.00  0.97  0.00  0.00  0.01  0.26  0.00
  WS02006247WS02006245    1.00   0.02  0.00  0.00  0.96  0.00  0.00  0.02  0.01  0.00
  WS02006245WS02006243    1.00   0.02  0.00  0.00  0.96  0.00  0.00  0.03  0.01  0.00
  WS02006243WS02006242    1.00   0.01  0.00  0.00  0.99  0.00  0.00  0.00  0.16  0.00
  WS02006242WS02006240    1.00   0.01  0.00  0.00  0.99  0.00  0.00  0.00  0.00  0.00
  WS02006240WS02006239    1.00   0.00  0.00  0.00  0.97  0.00  0.00  0.03  0.01  0.00
  WS02006239WS02006238    1.00   0.00  0.00  0.00  1.00  0.00  0.00  0.00  0.00  0.00
  WS02006238WS02006235    1.00   0.00  0.00  0.00  1.00  0.00  0.00  0.00  0.00  0.00
  WS02006235WS02006234    1.00   0.00  0.00  0.00  0.97  0.00  0.03  0.00  0.00  0.00
  WS02006234WS02006232    1.00   0.00  0.00  0.00  1.00  0.00  0.00  0.00  0.00  0.00
  WS02006232WS02006231    1.00   0.00  0.00  0.00  0.99  0.00  0.01  0.00  0.00  0.00
  WS02006231WS02006230    1.00   0.00  0.00  0.00  0.52  0.00  0.47  0.00  0.00  0.00
  WS02006230WS02006229    1.00   0.00  0.00  0.00  0.98  0.00  0.00  0.02  0.01  0.00
  WS02006228WS02006109    1.00   0.00  0.00  0.00  1.00  0.00  0.00  0.00  0.00  0.00
  WS02006116WS02004401    1.00   0.02  0.00  0.00  0.98  0.00  0.00  0.00  0.00  0.00
  WS02006115WS02006116    1.00   0.02  0.00  0.00  0.97  0.00  0.00  0.01  0.01  0.00
  WS02006113WS02006111    1.00   0.02  0.00  0.00  0.00  0.98  0.00  0.00  0.12  0.00
  WS02006112WS02006115    1.00   0.02  0.00  0.00  0.98  0.00  0.00  0.00  0.00  0.00
  WS02006111WS02006112    1.00   0.02  0.00  0.00  0.98  0.00  0.00  0.00  0.93  0.00
  WS02006110WS02006113    1.00   0.01  0.00  0.00  0.98  0.00  0.00  0.00  0.00  0.00
  WS02006109WS02006110    1.00   0.00  0.01  0.00  0.98  0.00  0.00  0.00  0.00  0.00
  WS02004411WS02004412    1.00   0.05  0.00  0.00  0.95  0.00  0.00  0.00  0.00  0.00
  WS02004401WS02004402    1.00   0.02  0.00  0.00  0.98  0.00  0.00  0.00  0.00  0.00
  WS02004413WS02003067    1.00   0.05  0.01  0.00  0.00  0.00  0.94  0.00  0.00  0.00
  WS02004412WS02004413    1.00   0.05  0.00  0.00  0.95  0.00  0.00  0.00  0.00  0.00
  WS02004410WS02004411    1.00   0.05  0.00  0.00  0.95  0.00  0.00  0.00  0.00  0.00
  WS02004409WS02004410    1.00   0.05  0.00  0.00  0.95  0.00  0.00  0.00  0.00  0.00
  WS02004407WS02004409    1.00   0.05  0.00  0.00  0.94  0.01  0.00  0.00  0.81  0.00
  WS02004406WS02004407    1.00   0.00  0.04  0.00  0.95  0.00  0.00  0.00  0.00  0.00
  WS02004405WS02004406    1.00   0.00  0.00  0.00  1.00  0.00  0.00  0.00  0.02  0.00
  WS02004404WS02004405    1.00   0.00  0.00  0.00  1.00  0.00  0.00  0.00  0.00  0.00
  WS02004403WS02004404    1.00   0.00  0.02  0.00  0.98  0.00  0.00  0.00  0.02  0.00
  WS02004402WS02004403    1.00   0.02  0.00  0.00  0.98  0.00  0.00  0.00  0.00  0.00
  WS02004139WS02001211    1.00   0.00  0.00  0.00  0.99  0.00  0.01  0.00  0.00  0.00
  WS02004138WS02004139    1.00   0.00  0.00  0.00  0.99  0.01  0.00  0.00  1.00  0.00
  WS02003067WS02003066    1.00   0.06  0.01  0.00  0.93  0.00  0.00  0.00  0.00  0.00
  WS02001213WS02003059    1.00   0.00  0.00  0.00  0.99  0.00  0.00  0.00  0.00  0.00
  WS02001212WS02001213    1.00   0.00  0.00  0.00  0.75  0.00  0.24  0.00  0.00  0.00
  WS02001211WS02001212    1.00   0.00  0.00  0.00  1.00  0.00  0.00  0.00  0.00  0.00
  WS02003072WS02003073    1.00   0.00  0.00  0.00  0.00  0.00  0.00  1.00  0.00  0.00
  WS02003069WS02003072    1.00   0.00  0.00  0.00  0.99  0.01  0.00  0.00  0.34  0.00
  WS02003060WS02003069    1.00   0.00  0.00  0.00  0.98  0.02  0.00  0.00  0.00  0.00
  WS02003059WS02003060    1.00   0.00  0.00  0.00  0.99  0.01  0.00  0.00  0.01  0.00
  HS02004901HS02004770    1.00   0.04  0.00  0.00  0.96  0.00  0.00  0.00  0.00  0.00
  HS02004876HS02004881    1.00   0.02  0.00  0.00  0.88  0.10  0.00  0.00  0.00  0.00
  HS02004870HS02004876    1.00   0.01  0.00  0.00  0.99  0.00  0.00  0.00  0.95  0.00
  HS02004842HS02004848    1.00   0.00  0.04  0.00  0.96  0.00  0.00  0.00  0.59  0.00
  HS02004837HS02004842    1.00   0.00  0.00  0.00  0.99  0.01  0.00  0.00  0.11  0.00
  HS02004830HS02004837    1.00   0.00  0.00  0.00  1.00  0.00  0.00  0.00  0.99  0.00
  HS02004824HS02004830    1.00   0.00  0.00  0.00  1.00  0.00  0.00  0.00  0.00  0.00
  HS02004817HS02004824    1.00   0.00  0.00  0.00  1.00  0.00  0.00  0.00  1.00  0.00
  HS02004770HS02004777    1.00   0.00  0.04  0.00  0.96  0.00  0.00  0.00  0.02  0.00
  HS02004799HS02004480    1.00   0.00  0.02  0.00  0.96  0.00  0.02  0.00  0.00  0.00
  HS02004792HS02004799    1.00   0.00  0.00  0.00  0.99  0.01  0.00  0.00  0.98  0.00
  HS02004788HS02004792    1.00   0.00  0.00  0.00  0.99  0.01  0.00  0.00  0.98  0.00
  HS02004785HS02004788    1.00   0.00  0.00  0.00  1.00  0.00  0.00  0.00  0.00  0.00
  HS02004777HS02004785    1.00   0.00  0.00  0.00  1.00  0.00  0.00  0.00  0.12  0.00
  HS02004480HS02004478    1.00   0.04  0.00  0.00  0.62  0.00  0.00  0.34  0.00  0.00
  HS02004479HS02004480    1.00   0.02  0.00  0.00  0.98  0.00  0.00  0.00  0.11  0.00
  HS02004862HS02004870    1.00   0.00  0.00  0.00  1.00  0.00  0.00  0.00  0.03  0.00
  HS02004848HS02004852    1.00   0.04  0.00  0.00  0.96  0.00  0.00  0.00  0.78  0.00
  HS02004856HS02004862    1.00   0.00  0.04  0.00  0.96  0.00  0.00  0.00  0.83  0.00
  HS02004852HS02004856    1.00   0.04  0.00  0.00  0.96  0.00  0.00  0.00  0.86  0.00
  HS02004802HS02004478    1.00   0.04  0.00  0.00  0.96  0.00  0.00  0.00  0.02  0.00
  HS02004478WS02006287    1.00   0.04  0.00  0.00  0.72  0.24  0.00  0.00  0.69  0.00
  HS02004817HS02004807    1.00   0.00  0.04  0.00  0.96  0.00  0.00  0.00  0.01  0.00
  HS02004807HS02004802    1.00   0.04  0.00  0.00  0.96  0.00  0.00  0.00  0.00  0.00
  YS02001759YS02001757    1.00   0.00  0.00  0.00  1.00  0.00  0.00  0.00  0.16  0.00
  YS02001762YS02001759    1.00   0.00  0.00  0.00  1.00  0.00  0.00  0.00  0.03  0.00
  YS02001765YS02001762    1.00   0.00  0.00  0.00  1.00  0.00  0.00  0.00  0.13  0.00
  YS02001770YS02001767    1.00   0.00  0.00  0.00  1.00  0.00  0.00  0.00  0.00  0.00
  YS02001774YS02001770    1.00   0.00  0.03  0.00  0.96  0.00  0.00  0.00  0.03  0.00
  YS02001779YS02001774    1.00   0.00  0.00  0.00  1.00  0.00  0.00  0.00  0.17  0.00
  YS02001649YS02001757    1.00   0.00  0.00  0.00  1.00  0.00  0.00  0.00  0.16  0.00
  YS02001767YS02001765    1.00   0.00  0.00  0.00  1.00  0.00  0.00  0.00  0.00  0.00
  YS02006561YS02001783    1.00   0.04  0.00  0.00  0.47  0.49  0.00  0.00  0.58  0.00
  YS02001783YS02001784    1.00   0.00  0.04  0.00  0.96  0.00  0.00  0.00  0.00  0.00
  YS02001784YS02001785    1.00   0.00  0.00  0.00  1.00  0.00  0.00  0.00  0.16  0.00
  YS02001788YS02001790    1.00   0.00  0.00  0.00  0.52  0.48  0.00  0.00  0.52  0.00
  YS02001790YS02001791    1.00   0.00  0.00  0.00  0.50  0.50  0.00  0.00  0.39  0.00
  YS02001791YS02001793    1.00   0.00  0.00  0.00  0.51  0.49  0.00  0.00  0.02  0.00
  YS02001910YS02001907    1.00   0.00  0.00  0.00  0.98  0.00  0.00  0.02  0.12  0.00
  YS02001786YS02001788    1.00   0.00  0.00  0.00  0.49  0.51  0.00  0.00  0.00  0.00
  YS02001915YS02001910    1.00   0.00  0.00  0.00  0.99  0.01  0.00  0.00  0.14  0.00
  YS02001918YS02001915    1.00   0.00  0.01  0.00  0.99  0.00  0.00  0.00  0.57  0.00
  YS02001923YS02001920    1.00   0.00  0.00  0.00  1.00  0.00  0.00  0.00  0.83  0.00
  YS02001926YS02001923    1.00   0.00  0.03  0.00  0.15  0.00  0.82  0.00  0.00  0.00
  YS02001929YS02001926    1.00   0.00  0.04  0.00  0.96  0.00  0.00  0.00  0.79  0.00
  YS02001920YS02001918    1.00   0.00  0.01  0.00  0.99  0.00  0.00  0.00  0.00  0.00
  YS02001629YS02163301    1.00   0.04  0.00  0.00  0.96  0.00  0.00  0.00  0.00  0.00
  YS02001619YS02001622    1.00   0.04  0.00  0.00  0.96  0.00  0.00  0.00  0.00  0.00
  YS02001622YS02001625    1.00   0.04  0.00  0.00  0.96  0.00  0.00  0.00  0.04  0.00
  YS02001625YS02001629    1.00   0.04  0.01  0.00  0.94  0.00  0.01  0.00  0.00  0.00
  YS02163301YS02001633    1.00   0.00  0.04  0.00  0.96  0.00  0.00  0.00  0.00  0.00
  YS02163601YS02164001    1.00   0.00  0.03  0.00  0.97  0.00  0.00  0.00  0.00  0.00
  YS02164001YS02001641    1.00   0.01  0.02  0.00  0.97  0.00  0.00  0.00  0.06  0.00
  YS02001641YS02001644    1.00   0.00  0.01  0.00  0.99  0.00  0.00  0.00  0.00  0.00
  YS02001647YS02001649    1.00   0.00  0.04  0.00  0.96  0.00  0.00  0.00  0.01  0.00
  YS02006553YS02006556    1.00   0.02  0.00  0.00  0.98  0.00  0.00  0.00  0.03  0.00
  YS02006556YS02006558    1.00   0.00  0.00  0.00  1.00  0.00  0.00  0.00  0.00  0.00
  YSB6556YSB1171          1.00   0.02  0.01  0.00  0.96  0.00  0.00  0.00  0.00  0.00
  YS02001907YS02006553    1.00   0.00  0.01  0.00  0.98  0.00  0.00  0.00  0.00  0.00
  YS02006558YS02006561    1.00   0.04  0.00  0.00  0.19  0.77  0.00  0.00  0.50  0.00
  YS02001633YS02163601    1.00   0.00  0.01  0.00  0.99  0.00  0.00  0.00  0.15  0.00
  YS02001644YS02001647    1.00   0.00  0.04  0.00  0.96  0.00  0.00  0.00  0.00  0.00
  YS02001745YS02001748    1.00   0.00  0.00  0.00  0.92  0.01  0.00  0.08  0.03  0.00
  YS02001748YS02001751    1.00   0.00  0.00  0.00  0.98  0.02  0.00  0.00  0.14  0.00
  YS02001751YS02001754    1.00   0.00  0.00  0.00  0.95  0.00  0.00  0.05  0.01  0.00
  YS02001754YS02001757    1.00   0.00  0.00  0.00  0.99  0.01  0.00  0.00  0.17  0.00
  YS02001882YS02001884    1.00   0.04  0.00  0.00  0.96  0.00  0.00  0.00  0.00  0.00
  YS02001884YS02001887    1.00   0.02  0.01  0.00  0.97  0.00  0.00  0.00  0.00  0.00
  YS02001890YS02001895    1.00   0.00  0.04  0.00  0.96  0.00  0.00  0.00  0.00  0.00
  YS02001895YS02001898    1.00   0.04  0.00  0.00  0.95  0.00  0.01  0.00  0.00  0.00
  YS02001898YS02001901    1.00   0.04  0.00  0.00  0.96  0.00  0.00  0.00  0.01  0.00
  YS02001901YS02001904    1.00   0.04  0.00  0.00  0.96  0.00  0.00  0.00  0.00  0.00
  YS02001904YS02001907    1.00   0.00  0.04  0.00  0.96  0.00  0.00  0.00  0.00  0.00
  YS02001887YS02001890    1.00   0.00  0.00  0.00  0.98  0.00  0.02  0.00  0.00  0.00
  YS02001652YS02001649    1.00   0.00  0.00  0.00  1.00  0.00  0.00  0.00  0.15  0.00
  YS02001655YS02001652    1.00   0.00  0.00  0.00  0.95  0.00  0.00  0.05  0.01  0.00
  YS02001658YS02001655    1.00   0.00  0.04  0.00  0.94  0.02  0.00  0.00  0.02  0.00
  YS02001661YS02001658    1.00   0.04  0.00  0.00  0.92  0.05  0.00  0.00  0.03  0.00
  YS02001664YS02001661    1.00   0.04  0.00  0.00  0.87  0.09  0.00  0.00  0.15  0.00
  YSB1154YSB6556          1.00   0.04  0.00  0.00  0.96  0.00  0.00  0.00  0.01  0.00
  YSB1174YSB1171          1.00   0.02  0.01  0.00  0.97  0.00  0.00  0.00  0.00  0.00
  YSB1171HS02004479       1.00   0.02  0.00  0.00  0.98  0.00  0.00  0.00  0.10  0.00
  HS02004881HS02006253    1.00   0.02  0.00  0.00  0.72  0.01  0.00  0.25  0.57  0.00
  YS02001793JiankangQianchi    1.00   0.00  0.00  0.00  0.64  0.36  0.00  0.00  0.11  0.00
  YS02001757CaochengTiaoxuchi    1.00   0.00  0.06  0.00  0.90  0.05  0.00  0.00  0.00  0.00
  WSF200WS02003060        1.00   0.00  0.07  0.00  0.53  0.40  0.00  0.00  0.19  0.00
  1                       1.00   0.00  0.00  0.00  0.00  1.00  0.00  0.00  0.35  0.00
  2                       1.00   0.82  0.00  0.00  0.00  0.18  0.00  0.00  0.02  0.00
  3                       1.00   0.03  0.00  0.00  0.00  0.97  0.00  0.00  0.00  0.00
  4                       1.00   1.00  0.00  0.00  0.00  0.00  0.00  0.00  0.00  0.00
  
  
  *************************
  Conduit Surcharge Summary
  *************************
  
  ----------------------------------------------------------------------------
                                                           Hours        Hours 
                         --------- Hours Full --------   Above Full   Capacity
  Conduit                Both Ends  Upstream  Dnstream   Normal Flow   Limited
  ----------------------------------------------------------------------------
  WS02006229WS02006228        1.80      1.85      1.80      4.60         1.80
  WS02006256WS02006235        6.36      6.36      7.83      4.99         0.01
  WS02006249WS02006248        0.01      0.01      0.01      4.44         0.01
  WS02006247WS02006245        0.01      0.01      0.01      4.51         0.01
  WS02006243WS02006242        0.01      0.01      0.74      0.01         0.01
  WS02006242WS02006240        0.53      0.53      0.98      0.01         0.01
  WS02006240WS02006239        0.61      0.61      0.75      0.01         0.01
  WS02006239WS02006238        1.03      1.03      1.15      0.01         0.01
  WS02006238WS02006235        1.12      1.12      1.31      0.01         0.01
  WS02006235WS02006234        0.82      0.82      1.05      6.38         0.01
  WS02006234WS02006232        0.98      0.98      1.53      0.01         0.01
  WS02006232WS02006231        0.58      0.58      1.53      0.01         0.01
  WS02006231WS02006230        0.44      0.44      0.64      6.34         0.01
  WS02006230WS02006229        2.29      4.55      2.29      6.41         2.29
  WS02006228WS02006109        1.82      1.99      1.82      4.72         1.82
  WS02006112WS02006115        0.01      0.01      1.20      0.01         0.01
  WS02006111WS02006112        0.01      0.01      4.62      0.01         0.01
  WS02006110WS02006113        0.01      0.01      1.90      0.01         0.01
  WS02006109WS02006110        0.93      0.93      2.00      0.93         0.01
  WS02004406WS02004407        0.01      0.01      0.32      0.01         0.01
  WS02004405WS02004406        0.32      0.40      0.32      1.06         0.32
  WS02004404WS02004405        0.40      0.49      0.40      6.32         0.40
  WS02004403WS02004404        0.01      0.01      0.49      0.01         0.01
  WS02003072WS02003073        0.01      0.01      0.01      4.66         0.01
  HS02004480HS02004478        0.01      0.01      0.01      0.41         0.01
  YS02001759YS02001757        6.15      6.15      6.19      0.01         0.01
  YS02001762YS02001759        6.15      6.15      6.15      0.01         0.01
  YS02001765YS02001762        6.13      6.13      6.15      0.01         0.01
  YS02001770YS02001767        6.12      6.13      6.12      0.44         0.79
  YS02001774YS02001770        6.11      6.11      6.14      0.01         0.01
  YS02001779YS02001774        5.95      5.95      6.14      0.01         0.01
  YS02001649YS02001757        6.14      6.14      6.19      0.01         0.01
  YS02001767YS02001765        6.12      6.12      6.13      0.01         0.01
  YS02006561YS02001783        0.54      0.54      1.32      0.01         0.01
  YS02001783YS02001784        1.32      1.32      1.38      1.37         1.09
  YS02001784YS02001785        1.33      1.38      1.33      2.22         1.32
  YS02001788YS02001790        1.32      1.32      2.70      0.01         0.01
  YS02001790YS02001791        2.70      2.70      2.82      0.01         0.02
  YS02001791YS02001793        2.82      2.82      3.09      0.01         0.01
  YS02001910YS02001907        1.12      1.12      1.68      0.01         0.01
  YS02001786YS02001788        1.32      1.33      1.32      1.86         1.31
  YS02001915YS02001910        0.84      0.84      1.12      0.01         0.01
  YS02001918YS02001915        0.01      0.01      0.84      0.01         0.01
  YS02001923YS02001920        0.01      0.01      0.21      0.01         0.01
  YS02001920YS02001918        0.01      0.01      0.21      0.01         0.01
  YS02001629YS02163301        6.10      6.10      6.11      0.01         0.01
  YS02001619YS02001622        5.78      5.78      5.82      0.01         0.01
  YS02001622YS02001625        5.82      5.82      6.09      0.01         0.01
  YS02001625YS02001629        5.79      5.79      6.09      0.01         0.01
  YS02163301YS02001633        6.11      6.11      6.12      0.01         0.01
  YS02163601YS02164001        6.12      6.12      6.15      0.01         0.01
  YS02164001YS02001641        6.12      6.12      6.13      0.01         0.03
  YS02001641YS02001644        6.13      6.13      6.13      1.40         1.37
  YS02001647YS02001649        6.06      6.06      6.14      0.01         0.01
  YS02006553YS02006556        1.42      1.42      1.75      0.01         0.01
  YS02006556YS02006558        1.58      1.58      1.81      0.01         0.01
  YS02001907YS02006553        2.23      2.23      2.41      0.01         0.01
  YS02006558YS02006561        1.00      1.37      1.00      2.09         1.00
  YS02001633YS02163601        6.12      6.12      6.15      0.01         0.01
  YS02001644YS02001647        6.06      6.06      6.13      0.01         0.01
  YS02001745YS02001748        0.01      0.01      5.58      0.01         0.01
  YS02001748YS02001751        5.66      5.66      5.77      0.01         0.01
  YS02001751YS02001754        5.77      5.77      5.97      0.01         0.01
  YS02001754YS02001757        6.04      6.04      6.19      0.01         0.01
  YS02001882YS02001884        0.87      0.87      0.91      0.01         0.01
  YS02001884YS02001887        0.99      0.99      1.03      0.01         0.01
  YS02001890YS02001895        0.81      0.81      1.16      0.01         0.01
  YS02001895YS02001898        0.78      0.78      0.81      0.01         0.01
  YS02001898YS02001901        0.83      0.83      0.99      0.01         0.01
  YS02001901YS02001904        0.95      0.95      0.99      0.01         0.01
  YS02001904YS02001907        0.95      0.95      1.77      0.01         0.01
  YS02001887YS02001890        1.07      1.07      1.09      0.01         0.01
  YS02001652YS02001649        6.07      6.07      6.14      0.01         0.01
  YS02001655YS02001652        5.81      5.81      6.03      0.01         0.01
  YS02001658YS02001655        5.63      5.63      5.81      0.01         0.01
  YS02001661YS02001658        0.22      0.22      5.63      0.01         0.01
  YS02001664YS02001661        0.01      0.01      1.24      0.01         0.01
  YS02001793JiankangQianchi        3.02      3.02      3.88      0.01         0.01
  YS02001757CaochengTiaoxuchi        5.45      5.45      6.19      0.01         0.01
  3                           0.01      0.01      0.01      0.01         0.01
  
  
  ***************
  Pumping Summary
  ***************
  
  ---------------------------------------------------------------------------------------------------------
                                                  Min       Avg       Max     Total     Power    % Time Off
                        Percent   Number of      Flow      Flow      Flow    Volume     Usage    Pump Curve
  Pump                 Utilized   Start-Ups       LPS       LPS       LPS  10^6 ltr     Kw-hr    Low   High
  ---------------------------------------------------------------------------------------------------------
  CC-Pump-1               31.45           2      0.00    177.89    200.00     1.570      2.45    0.0   16.9
  CC-Pump-2               31.91           1      0.00    186.58    200.00     1.680      1.30    0.0    0.0
  JK-Pump-1               82.98           2      0.00    226.45    300.00     4.114     36.85    0.0    0.0
  JK-Pump-2               68.08           2      0.00    193.24    300.00     2.732     38.29    0.0    0.0
  XR-Pump-1               27.66           2      0.00     79.89     95.00     0.627      3.92    0.0    0.0
  XR-Pump-2               59.57           1      0.00     92.83     95.00     1.568     16.81    0.0    0.0
  XR-Pump-3               68.08           2      0.00     90.59     95.00     1.767     16.64    0.0    0.0
  XR-Pump-4               72.34           2      0.00     91.16     95.00     1.881     18.19    0.0    0.0
  

  Analysis begun on:  Mon Dec 20 12:29:01 2021
  Analysis ended on:  Mon Dec 20 12:29:05 2021
  Total elapsed time: 00:00:04