
  EPA STORM WATER MANAGEMENT MODEL - VERSION 5.1 (Build 5.3.0.dev0)
  --------------------------------------------------------------

  WARNING 04: minimum elevation drop used for Conduit WS02004404WS02004405
  WARNING 03: negative offset ignored for Link YS02001904YS02001907
  
  *********************************************************
  NOTE: The summary statistics displayed in this report are
  based on results found at every computational time step,  
  not just on results from each reporting time step.
  *********************************************************
  
  ****************
  Analysis Options
  ****************
  Flow Units ............... LPS
  Process Models:
    Rainfall/Runoff ........ YES
    RDII ................... NO
    Snowmelt ............... NO
    Groundwater ............ NO
    Flow Routing ........... YES
    Ponding Allowed ........ NO
    Water Quality .......... NO
  Infiltration Method ...... HORTON
  Flow Routing Method ...... DYNWAVE
  Surcharge Method ......... EXTRAN
  Starting Date ............ 08/28/2015 08:00:00
  Ending Date .............. 08/28/2015 15:50:00
  Antecedent Dry Days ...... 8.0
  Report Time Step ......... 00:01:00
  Wet Time Step ............ 00:01:00
  Dry Time Step ............ 00:01:00
  Routing Time Step ........ 5.00 sec
  Variable Time Step ....... YES
  Maximum Trials ........... 8
  Number of Threads ........ 4
  Head Tolerance ........... 0.001500 m
  
  
  **************************        Volume         Depth
  Runoff Quantity Continuity     hectare-m            mm
  **************************     ---------       -------
  Total Precipitation ......         6.144        13.452
  Evaporation Loss .........         0.000         0.000
  Infiltration Loss ........         1.572         3.442
  Surface Runoff ...........         3.480         7.619
  Final Storage ............         1.093         2.393
  Continuity Error (%) .....        -0.016
  
  
  **************************        Volume        Volume
  Flow Routing Continuity        hectare-m      10^6 ltr
  **************************     ---------     ---------
  Dry Weather Inflow .......         0.616         6.165
  Wet Weather Inflow .......         3.479        34.789
  Groundwater Inflow .......         0.000         0.000
  RDII Inflow ..............         0.000         0.000
  External Inflow ..........         0.102         1.024
  External Outflow .........         1.947        19.469
  Flooding Loss ............         1.730        17.297
  Evaporation Loss .........         0.000         0.000
  Exfiltration Loss ........         0.000         0.000
  Initial Stored Volume ....         0.076         0.761
  Final Stored Volume ......         0.643         6.433
  Continuity Error (%) .....        -1.080
  
  
  *************************
  Highest Continuity Errors
  *************************
  Node HS02004842 (15.27%)
  Node YS02001884 (11.53%)
  Node JK-storage (-4.49%)
  Node YSB1171 (2.79%)
  Node HS02004817 (2.78%)
  
  
  ***************************
  Time-Step Critical Elements
  ***************************
  Link 3 (51.69%)
  Link WS02006252WS02006251 (40.04%)
  Link WS02006280WS02006229 (2.08%)
  Link WS02006238WS02006235 (1.99%)
  
  
  ********************************
  Highest Flow Instability Indexes
  ********************************
  Link YS02163601YS02164001 (41)
  Link YS02163301YS02001633 (41)
  Link YS02001629YS02163301 (40)
  Link YS02001619YS02001622 (38)
  Link YS02164001YS02001641 (38)
  
  
  *************************
  Routing Time Step Summary
  *************************
  Minimum Time Step           :     0.50 sec
  Average Time Step           :     0.80 sec
  Maximum Time Step           :     5.00 sec
  Percent in Steady State     :    -0.00
  Average Iterations per Step :     4.60
  Percent Not Converging      :    21.30
  
  
  ***************************
  Subcatchment Runoff Summary
  ***************************
  
  ------------------------------------------------------------------------------------------------------------------------------
                            Total      Total      Total      Total     Imperv       Perv      Total       Total     Peak  Runoff
                           Precip      Runon       Evap      Infil     Runoff     Runoff     Runoff      Runoff   Runoff   Coeff
  Subcatchment                 mm         mm         mm         mm         mm         mm         mm    10^6 ltr      LPS
  ------------------------------------------------------------------------------------------------------------------------------
  sub0                      13.45       0.00       0.00       0.89      11.25       0.05      11.30        0.01     3.67   0.840
  sub1                      13.45       0.00       0.00       1.45      10.71       0.03      10.74        0.07    24.31   0.799
  sub2                      13.45       0.00       0.00       4.95       7.56       0.02       7.58        0.07    22.93   0.564
  sub3                      13.45       0.00       0.00       4.96       7.52       0.02       7.54        0.17    51.30   0.560
  sub4                      13.45       0.00       0.00       1.46      10.54       0.02      10.56        0.22    61.94   0.785
  sub5                      13.45       0.00       0.00       0.91      11.19       0.03      11.22        0.13    43.21   0.834
  sub7                      13.45       0.00       0.00       1.17      10.98       0.04      11.03        0.04    13.69   0.820
  sub8                      13.45       0.00       0.00       1.17      10.97       0.04      11.01        0.07    25.15   0.819
  sub9                      13.45       0.00       0.00       1.17      10.97       0.04      11.01        0.05    18.81   0.818
  sub10                     13.45       0.00       0.00       1.04      11.08       0.03      11.11        0.12    42.29   0.826
  sub11                     13.45       0.00       0.00       1.04      11.10       0.04      11.14        0.13    46.68   0.828
  sub12                     13.45       0.00       0.00       1.69      10.51       0.06      10.58        0.09    35.94   0.786
  sub14                     13.45       0.00       0.00       1.17      10.97       0.04      11.01        0.10    37.02   0.818
  sub15                     13.45       0.00       0.00       4.00       8.43       0.04       8.47        0.15    51.03   0.630
  sub16                     13.45       0.00       0.00       4.38       8.09       0.06       8.15        0.09    32.58   0.606
  sub17                     13.45       0.00       0.00       4.25       8.21       0.06       8.27        0.07    26.73   0.615
  sub22                     13.45       0.00       0.00       5.74       6.88       0.04       6.92        0.44   159.06   0.514
  sub23                     13.45       0.00       0.00       4.93       7.60       0.05       7.65        0.36   133.95   0.569
  sub60                     13.45       0.00       0.00       1.61       8.73       0.00       8.74        2.65   387.96   0.649
  sub61                     13.45       0.00       0.00       2.28       8.88       0.00       8.88        2.74   483.52   0.660
  sub62                     13.45       0.00       0.00       1.07       9.65       0.00       9.66        2.97   496.42   0.718
  sub63                     13.45       0.00       0.00       3.90       7.77       0.00       7.77        2.35   446.68   0.578
  sub64                     13.45       0.00       0.00       2.01       8.38       0.00       8.38        2.55   368.35   0.623
  sub65                     13.45       0.00       0.00       1.75       8.52       0.00       8.52        2.62   373.60   0.634
  sub66                     13.45       0.00       0.00       3.90       7.19       0.00       7.19        2.21   337.96   0.535
  sub67                     13.45       0.00       0.00       1.07      10.19       0.01      10.19        3.15   622.58   0.758
  sub68                     13.45       0.00       0.00       1.88       9.34       0.01       9.34        2.87   531.38   0.694
  sub69                     13.45       0.00       0.00       2.01       9.68       0.01       9.69        2.26   503.32   0.720
  sub70                     13.45       9.89       0.00       7.67      12.93       0.26      13.20        3.02   423.72   0.565
  sub71                     13.45       0.00       0.00       1.07       9.40       0.00       9.40        2.22   347.35   0.699
  sub72                     13.45       0.00       0.00       0.94       7.49       0.00       7.50        1.53   163.23   0.557
  sub73                     13.45      12.84       0.00       8.67      14.26       0.27      14.53        3.41   375.92   0.552
  sub74                     13.45       0.00       0.00      10.09       2.88       0.00       2.89        1.15   273.25   0.215
  
  
  ******************
  Node Depth Summary
  ******************
  
  ---------------------------------------------------------------------------------
                                 Average  Maximum  Maximum  Time of Max    Reported
                                   Depth    Depth      HGL   Occurrence   Max Depth
  Node                 Type       Meters   Meters   Meters  days hr:min      Meters
  ---------------------------------------------------------------------------------
  WS02001211           JUNCTION     0.61     0.76     5.60     0  04:00        0.76
  WS02001212           JUNCTION     0.35     0.47     5.54     0  03:11        0.47
  WS02001213           JUNCTION     0.59     0.75     5.51     0  03:11        0.75
  WS02003069           JUNCTION     0.43     0.61     5.19     0  03:13        0.61
  WS02003072           JUNCTION     0.50     0.66     5.04     0  03:13        0.66
  WS02003073           JUNCTION     0.30     0.41     4.48     0  03:14        0.41
  WS02003060           JUNCTION     0.39     0.54     5.47     0  03:12        0.54
  WS02003066           JUNCTION     0.25     0.36     5.91     0  03:05        0.36
  WS02003059           JUNCTION     0.66     0.81     5.50     0  03:12        0.81
  WS02003067           JUNCTION     0.60     0.79     6.11     0  03:05        0.79
  WS02004401           JUNCTION     0.72     1.12     7.12     0  03:03        1.11
  WS02004402           JUNCTION     0.75     1.12     7.08     0  03:03        1.11
  WS02004403           JUNCTION     0.77     1.11     7.04     0  03:03        1.10
  WS02004404           JUNCTION     0.84     1.16     7.01     0  03:03        1.16
  WS02004406           JUNCTION     0.84     1.11     6.94     0  03:03        1.11
  WS02004409           JUNCTION     0.53     0.86     6.63     0  03:04        0.86
  WS02004410           JUNCTION     0.55     0.85     6.57     0  03:04        0.85
  WS02004411           JUNCTION     0.56     0.85     6.53     0  03:04        0.85
  WS02004412           JUNCTION     0.58     0.84     6.48     0  03:04        0.84
  WS02004413           JUNCTION     0.73     0.97     6.44     0  03:05        0.97
  WS02004405           JUNCTION     0.83     1.14     6.99     0  03:03        1.14
  WS02006109           JUNCTION     0.80     1.28     7.89     0  03:02        1.26
  WS02006110           JUNCTION     0.78     1.12     7.70     0  03:02        1.12
  WS02006111           JUNCTION     0.25     0.62     7.33     0  03:03        0.62
  WS02006112           JUNCTION     0.89     1.40     7.28     0  03:03        1.39
  WS02006113           JUNCTION     0.37     0.62     7.51     0  03:03        0.62
  WS02006115           JUNCTION     0.61     1.07     7.21     0  03:03        1.07
  WS02006116           JUNCTION     0.69     1.13     7.17     0  03:03        1.12
  WS02006230           JUNCTION     0.79     1.41     8.15     0  03:02        1.40
  WS02006231           JUNCTION     0.53     1.05     8.17     0  03:02        1.03
  WS02006232           JUNCTION     0.67     1.14     8.18     0  03:02        1.13
  WS02006234           JUNCTION     0.59     1.03     8.19     0  03:02        1.02
  WS02006235           JUNCTION     0.62     1.04     8.21     0  03:02        1.03
  WS02006238           JUNCTION     0.64     1.06     8.21     0  03:02        1.05
  WS02006240           JUNCTION     0.54     1.03     8.32     0  02:30        0.93
  WS02006242           JUNCTION     0.59     1.00     8.27     0  02:30        0.97
  WS02006243           JUNCTION     0.47     0.84     8.26     0  03:02        0.84
  WS02006245           JUNCTION     0.45     0.85     8.33     0  02:30        0.79
  WS02006247           JUNCTION     0.47     0.83     8.33     0  02:30        0.79
  WS02006248           JUNCTION     0.41     0.71     8.30     0  03:02        0.71
  WS02006249           JUNCTION     0.44     0.71     8.31     0  03:02        0.71
  WS02006239           JUNCTION     0.60     1.07     8.28     0  02:30        1.00
  WS02006251           JUNCTION     0.44     0.81     8.48     0  03:02        0.81
  WS02006252           JUNCTION     0.38     0.59     8.84     0  02:56        0.59
  WS02006253           JUNCTION     0.46     0.84     8.48     0  03:02        0.84
  WS02006256           JUNCTION     1.07     1.25     8.18     0  03:03        1.25
  WS02004138           JUNCTION     0.13     0.20     7.45     0  00:00        0.19
  WS02004407           JUNCTION     0.24     0.37     6.68     0  03:03        0.37
  WS02006228           JUNCTION     0.81     1.40     8.05     0  03:02        1.39
  WS02006229           JUNCTION     0.80     1.44     8.13     0  03:02        1.43
  WS02006280           JUNCTION     0.08     0.24     8.52     0  03:02        0.24
  WS02006284           JUNCTION     0.38     0.63     9.02     0  03:02        0.62
  WS02006287           JUNCTION     0.11     0.37     9.32     0  03:02        0.37
  WSF200               JUNCTION     0.24     0.38     5.61     0  03:07        0.38
  HS02004901           JUNCTION     0.14     0.35    10.17     0  03:01        0.35
  HS02004881           JUNCTION     0.01     0.05     9.08     0  03:01        0.05
  HS02004876           JUNCTION     0.05     0.15     9.18     0  03:01        0.15
  HS02004870           JUNCTION     0.02     0.09     9.37     0  03:01        0.09
  HS02004862           JUNCTION     0.02     0.10     9.49     0  03:01        0.10
  HS02004856           JUNCTION     0.08     0.15     9.57     0  03:01        0.15
  HS02004852           JUNCTION     0.01     0.07     9.58     0  03:02        0.07
  HS02004848           JUNCTION     0.01     0.06     9.67     0  03:01        0.06
  HS02004842           JUNCTION     0.33     0.40     9.67     0  03:01        0.40
  HS02004837           JUNCTION     0.03     0.09     9.67     0  03:01        0.09
  HS02004830           JUNCTION     0.04     0.10     9.57     0  03:01        0.10
  HS02004824           JUNCTION     0.03     0.11     9.51     0  03:02        0.11
  HS02004817           JUNCTION     0.45     0.67     9.52     0  03:02        0.67
  HS02004807           JUNCTION     0.14     0.34     9.51     0  03:02        0.34
  HS02004802           JUNCTION     0.17     0.38     9.50     0  03:02        0.38
  HS02004799           JUNCTION     0.14     0.43     9.65     0  03:01        0.43
  HS02004792           JUNCTION     0.04     0.20     9.72     0  03:01        0.19
  HS02004788           JUNCTION     0.03     0.14    10.04     0  03:02        0.14
  HS02004785           JUNCTION     0.06     0.23    10.13     0  03:02        0.23
  HS02004777           JUNCTION     0.16     0.37    10.17     0  03:01        0.37
  HS02004770           JUNCTION     0.13     0.34    10.17     0  03:01        0.34
  HS02004480           JUNCTION     0.10     0.35     9.59     0  03:01        0.35
  HS02004479           JUNCTION     0.13     0.39     9.60     0  03:01        0.39
  HS02004478           JUNCTION     0.07     0.26     9.48     0  03:01        0.26
  YS02001745           JUNCTION     0.70     0.88     8.40     0  03:01        0.88
  YS02001748           JUNCTION     1.09     2.27     9.35     0  02:46        1.32
  YS02001751           JUNCTION     1.27     2.14     9.02     0  02:47        1.53
  YS02001754           JUNCTION     1.53     2.20     8.81     0  02:46        1.81
  YS02001762           JUNCTION     1.73     2.08     8.48     0  02:47        2.02
  YS02001765           JUNCTION     1.68     2.00     8.45     0  02:47        1.97
  YS02001767           JUNCTION     1.65     1.95     8.44     0  02:47        1.92
  YS02001770           JUNCTION     1.64     1.95     8.44     0  02:46        1.90
  YS02001774           JUNCTION     1.71     2.01     8.44     0  02:46        1.96
  YS02001779           JUNCTION     1.46     1.68     8.37     0  02:42        1.68
  YS02001882           JUNCTION     0.60     1.69     8.41     0  02:53        1.63
  YS02001884           JUNCTION     0.69     1.78     8.40     0  02:53        1.73
  YS02001759           JUNCTION     1.76     2.11     8.48     0  02:47        2.06
  YS02001887           JUNCTION     0.77     1.83     8.37     0  02:53        1.80
  YS02001890           JUNCTION     0.80     1.81     8.32     0  02:53        1.81
  YS02001898           JUNCTION     0.57     1.57     8.31     0  02:53        1.56
  YS02001901           JUNCTION     0.69     1.68     8.29     0  02:53        1.67
  YS02001904           JUNCTION     0.66     1.64     8.27     0  02:54        1.63
  YS02001907           JUNCTION     0.99     1.96     8.25     0  02:53        1.96
  YS02001910           JUNCTION     0.78     1.96     8.47     0  02:55        1.79
  YS02001915           JUNCTION     0.58     1.90     8.62     0  02:55        1.61
  YS02001918           JUNCTION     0.32     1.81     8.88     0  02:55        1.33
  YS02001619           JUNCTION     1.25     1.61     8.54     0  02:41        1.48
  YS02001629           JUNCTION     1.60     1.85     8.40     0  02:41        1.84
  YS02001641           JUNCTION     1.69     1.95     8.39     0  02:47        1.93
  YS02001644           JUNCTION     1.70     1.92     8.35     0  02:42        1.92
  YS02001652           JUNCTION     1.54     2.16     8.76     0  02:56        2.00
  YS02001655           JUNCTION     1.31     2.20     9.05     0  02:39        1.91
  YS02001920           JUNCTION     0.42     2.14     9.15     0  02:55        1.42
  YS02001923           JUNCTION     0.25     2.03     9.29     0  02:55        1.21
  YS02001926           JUNCTION     0.30     1.71     9.15     0  02:55        0.98
  YS02001929           JUNCTION     0.17     0.98     8.67     0  02:55        0.74
  YS02001658           JUNCTION     1.04     2.30     9.44     0  02:42        1.94
  YS02001661           JUNCTION     0.81     2.46     9.86     0  02:56        1.89
  YS02001664           JUNCTION     0.36     0.57     8.49     0  04:22        0.56
  YS02001622           JUNCTION     1.27     1.62     8.52     0  02:41        1.49
  YS02001633           JUNCTION     1.69     1.98     8.43     0  02:47        1.94
  YS02001649           JUNCTION     1.74     2.05     8.44     0  02:42        2.05
  YS02001757           JUNCTION     1.86     2.21     8.47     0  02:46        2.16
  YS02001895           JUNCTION     0.56     1.57     8.32     0  02:53        1.56
  YS02001625           JUNCTION     1.55     1.78     8.38     0  02:41        1.78
  YS02163301           JUNCTION     1.63     1.92     8.43     0  02:46        1.88
  YS02163601           JUNCTION     1.74     2.02     8.42     0  02:47        1.98
  YS02164001           JUNCTION     1.68     1.95     8.41     0  02:47        1.91
  YS02001647           JUNCTION     1.53     1.82     8.43     0  02:42        1.79
  YSB1154              JUNCTION     0.27     0.54     9.60     0  03:01        0.54
  YSB6556              JUNCTION     0.17     0.43     9.60     0  03:02        0.43
  YSB1174              JUNCTION     0.22     0.49     9.60     0  03:01        0.49
  YSB1171              JUNCTION     0.42     0.69     9.60     0  03:01        0.69
  YS02006553           JUNCTION     0.99     2.18     8.47     0  02:53        1.96
  YS02006561           JUNCTION     0.35     1.95     8.61     0  02:53        1.08
  YS02006556           JUNCTION     0.96     2.39     8.70     0  02:53        1.93
  YS02006558           JUNCTION     1.00     2.50     8.77     0  02:53        1.97
  YS02001783           JUNCTION     0.59     2.38     8.53     0  02:53        1.47
  YS02001784           JUNCTION     0.61     2.23     8.30     0  02:53        1.42
  YS02001786           JUNCTION     0.55     2.13     8.16     0  02:53        1.25
  YS02001788           JUNCTION     0.48     2.28     8.26     0  02:53        1.13
  YS02001790           JUNCTION     0.62     1.96     7.60     0  02:52        1.29
  YS02001791           JUNCTION     0.60     2.34     7.81     0  02:52        1.27
  YS02001793           JUNCTION     0.85     3.23     8.07     0  05:38        1.80
  WS02004139           JUNCTION     0.55     0.70     5.61     0  00:10        0.70
  WSC                  OUTFALL      0.30     0.41     1.08     0  03:14        0.41
  3                    OUTFALL      0.11     0.24     6.24     0  03:03        0.24
  4                    OUTFALL      0.04     0.21     7.21     0  03:02        0.21
  5                    OUTFALL      0.00     0.00     5.00     0  00:00        0.00
  JK-storage           STORAGE      3.21     5.80     6.60     0  02:53        5.80
  CC-storage           STORAGE      1.07     1.38     8.38     0  03:39        1.38
  XR-storage           STORAGE      7.54     7.72     5.72     0  02:12        7.72
  
  
  *******************
  Node Inflow Summary
  *******************
  
  -------------------------------------------------------------------------------------------------
                                  Maximum  Maximum                  Lateral       Total        Flow
                                  Lateral    Total  Time of Max      Inflow      Inflow     Balance
                                   Inflow   Inflow   Occurrence      Volume      Volume       Error
  Node                 Type           LPS      LPS  days hr:min    10^6 ltr    10^6 ltr     Percent
  -------------------------------------------------------------------------------------------------
  WS02001211           JUNCTION      7.35   385.98     0  00:10       0.207        5.17       0.394
  WS02001212           JUNCTION      0.00   384.09     0  00:11           0        5.15       0.227
  WS02001213           JUNCTION      0.00   383.67     0  00:11           0        5.14       0.383
  WS02003069           JUNCTION      0.32  1013.11     0  03:12     0.00902        13.8       0.164
  WS02003072           JUNCTION      0.00  1012.74     0  03:13           0        13.8       0.211
  WS02003073           JUNCTION      1.82  1014.55     0  03:13      0.0514        13.8       0.221
  WS02003060           JUNCTION     16.53  1012.84     0  03:12       0.466        13.9       0.160
  WS02003066           JUNCTION      0.00   810.32     0  03:05           0         8.3       0.056
  WS02003059           JUNCTION      0.00   381.84     0  00:12           0        5.13       0.556
  WS02003067           JUNCTION      0.00   810.02     0  03:05           0        8.31       0.117
  WS02004401           JUNCTION      0.00   813.05     0  03:03           0        8.56       0.279
  WS02004402           JUNCTION      0.00   813.08     0  03:03           0        8.54       0.260
  WS02004403           JUNCTION      0.00   813.10     0  03:03           0        8.52       0.234
  WS02004404           JUNCTION      0.16   813.27     0  03:03     0.00457         8.5       0.174
  WS02004406           JUNCTION      0.00   813.32     0  03:03           0        8.46       0.422
  WS02004409           JUNCTION      0.00   813.12     0  03:03           0        8.42       0.216
  WS02004410           JUNCTION      0.00   811.65     0  03:04           0         8.4       0.239
  WS02004411           JUNCTION      0.00   810.60     0  03:04           0        8.38       0.241
  WS02004412           JUNCTION      0.00   810.07     0  03:04           0        8.36       0.257
  WS02004413           JUNCTION      0.00   809.94     0  03:05           0        8.34       0.376
  WS02004405           JUNCTION      0.04   813.31     0  03:03     0.00107        8.49       0.259
  WS02006109           JUNCTION      1.23   797.27     0  03:02      0.0347        8.63       0.262
  WS02006110           JUNCTION      0.00   797.30     0  03:02           0        8.61       0.253
  WS02006111           JUNCTION      0.00   794.85     0  03:03           0        8.57       0.065
  WS02006112           JUNCTION     26.73   812.82     0  03:03      0.0709        8.64       0.370
  WS02006113           JUNCTION      0.00   797.21     0  03:02           0        8.58       0.135
  WS02006115           JUNCTION      0.00   812.83     0  03:03           0        8.61       0.271
  WS02006116           JUNCTION      0.00   812.95     0  03:03           0        8.58       0.254
  WS02006230           JUNCTION     10.28   403.07     0  06:00        0.29        6.54       0.224
  WS02006231           JUNCTION      0.00   392.98     0  06:00           0        6.27       0.256
  WS02006232           JUNCTION      0.00   392.98     0  06:00           0        6.28       0.281
  WS02006234           JUNCTION      0.00   393.12     0  06:00           0         6.3       0.169
  WS02006235           JUNCTION      0.00   393.10     0  06:00           0        6.34       0.189
  WS02006238           JUNCTION      0.00   324.37     0  06:43           0        4.43       0.191
  WS02006240           JUNCTION      0.00   330.70     0  06:42           0        4.43       0.360
  WS02006242           JUNCTION      0.00   336.19     0  04:51           0        4.44       0.421
  WS02006243           JUNCTION      0.00   344.04     0  05:11           0        4.43      -0.028
  WS02006245           JUNCTION      0.00   347.57     0  05:11           0        4.44       0.318
  WS02006247           JUNCTION      0.00   350.96     0  05:11           0        4.45       0.241
  WS02006248           JUNCTION      0.00   354.82     0  05:11           0        4.46       0.146
  WS02006249           JUNCTION      0.00   533.96     0  03:02           0        5.38       0.306
  WS02006239           JUNCTION      0.00   325.91     0  06:42           0        4.43       0.279
  WS02006251           JUNCTION      0.08   534.30     0  03:01     0.00217        5.42       0.262
  WS02006252           JUNCTION      0.00   400.00     0  02:50           0        4.99       0.010
  WS02006253           JUNCTION      3.67   134.78     0  03:01     0.00915       0.441       1.894
  WS02006256           JUNCTION      0.00   615.97     0  03:03           0         6.7       0.046
  WS02004138           JUNCTION      0.00   380.00     0  00:00           0        4.99       0.084
  WS02004407           JUNCTION      0.00   813.35     0  03:03           0        8.43       0.102
  WS02006228           JUNCTION      0.00   796.06     0  03:02           0        8.61       0.184
  WS02006229           JUNCTION      0.00   797.33     0  03:02           0        8.62       0.154
  WS02006280           JUNCTION      0.00   611.95     0  03:02           0         2.1       0.003
  WS02006284           JUNCTION      0.10   611.06     0  03:02      0.0027         2.1       0.059
  WS02006287           JUNCTION      0.00   609.83     0  03:02           0         2.1       0.034
  WSF200               JUNCTION      0.00   810.31     0  03:05           0         8.3       0.055
  HS02004901           JUNCTION     32.58    32.58     0  03:01      0.0853      0.0856       2.107
  HS02004881           JUNCTION     13.69   131.68     0  03:01      0.0372       0.403       0.085
  HS02004876           JUNCTION     24.31   119.36     0  03:01      0.0714       0.367       0.153
  HS02004870           JUNCTION     25.15    96.63     0  03:01      0.0703       0.295       0.038
  HS02004862           JUNCTION     23.13    73.48     0  03:01      0.0763       0.225       0.079
  HS02004856           JUNCTION     18.81    51.88     0  03:01      0.0529        0.15       0.973
  HS02004852           JUNCTION      0.00    35.11     0  03:01           0      0.0975       0.061
  HS02004848           JUNCTION     51.30    51.30     0  03:01        0.17        0.17       0.030
  HS02004842           JUNCTION      0.00    15.11     0  03:01           0      0.0851      18.025
  HS02004837           JUNCTION     48.64    62.30     0  03:01       0.302       0.374       0.219
  HS02004830           JUNCTION      0.15    61.39     0  03:01     0.00423       0.364       0.341
  HS02004824           JUNCTION     61.99   121.77     0  03:01       0.222       0.584       0.093
  HS02004817           JUNCTION      0.60   117.99     0  03:02      0.0169       0.601       2.855
  HS02004807           JUNCTION     46.68   158.05     0  03:01       0.129       0.713       0.602
  HS02004802           JUNCTION      0.00   156.92     0  03:03           0       0.709       0.572
  HS02004799           JUNCTION     37.02   389.10     0  03:01       0.105        1.19       0.208
  HS02004792           JUNCTION    159.34   356.46     0  03:01       0.445        1.08       0.038
  HS02004788           JUNCTION     52.70   202.58     0  03:02       0.193       0.638       0.062
  HS02004785           JUNCTION      0.15   157.28     0  03:01     0.00423       0.447       0.112
  HS02004777           JUNCTION      0.03   160.02     0  03:01    0.000846       0.447       1.175
  HS02004770           JUNCTION    133.95   163.77     0  03:01       0.365       0.449       0.699
  HS02004480           JUNCTION      0.00   456.69     0  03:01           0         1.4       0.084
  HS02004479           JUNCTION      0.00    72.19     0  03:02           0       0.228       0.322
  HS02004478           JUNCTION      0.00   609.30     0  03:02           0         2.1       0.018
  YS02001745           JUNCTION    387.96   387.96     0  03:01        2.65        2.65       0.401
  YS02001748           JUNCTION      0.04   538.49     0  02:46     0.00127        2.64       0.887
  YS02001751           JUNCTION      0.01   400.64     0  03:01     0.00031        2.61       0.906
  YS02001754           JUNCTION      0.26   401.09     0  03:01     0.00733         2.6       0.965
  YS02001762           JUNCTION      0.00   384.06     0  02:54           0        1.71       1.253
  YS02001765           JUNCTION      0.00   384.00     0  02:54           0        1.71       1.439
  YS02001767           JUNCTION      0.54   384.18     0  02:54      0.0151        1.73       2.101
  YS02001770           JUNCTION    496.57   496.57     0  03:01        2.97        3.04       1.045
  YS02001774           JUNCTION      0.00   315.74     0  03:40           0        1.36       1.889
  YS02001779           JUNCTION      0.01   316.25     0  03:40    0.000141        1.33       1.168
  YS02001882           JUNCTION      0.00    19.67     0  02:49           0      0.0204      13.245
  YS02001884           JUNCTION      0.00    25.00     0  02:47           0      0.0554      13.030
  YS02001759           JUNCTION    483.56   770.00     0  02:55        2.74        4.35       0.530
  YS02001887           JUNCTION    623.03   623.40     0  03:01        3.16        3.19       0.274
  YS02001890           JUNCTION      0.00   623.35     0  03:01           0        3.14       0.302
  YS02001898           JUNCTION      0.00   516.77     0  03:06           0        3.09       0.113
  YS02001901           JUNCTION      0.00   516.85     0  03:06           0        3.08       0.234
  YS02001904           JUNCTION      0.00   516.77     0  03:06           0        3.08       0.213
  YS02001907           JUNCTION      0.00  1171.35     0  02:56           0        6.88       0.358
  YS02001910           JUNCTION      0.00   664.07     0  02:56           0        3.81       0.312
  YS02001915           JUNCTION    347.37   663.99     0  02:56        2.22        3.85       0.167
  YS02001918           JUNCTION      0.00   379.33     0  02:56           0        1.65       0.122
  YS02001619           JUNCTION    337.96   337.96     0  03:01        2.21        2.21       0.547
  YS02001629           JUNCTION      0.00   221.64     0  02:49           0        1.57       1.853
  YS02001641           JUNCTION      0.00   465.21     0  02:49           0        4.09       0.516
  YS02001644           JUNCTION    368.39  1038.75     0  03:35        2.55        8.84       0.293
  YS02001652           JUNCTION      0.00   483.06     0  03:02           0         2.3       1.012
  YS02001655           JUNCTION      0.15   483.15     0  03:02     0.00434        2.33       1.092
  YS02001920           JUNCTION      2.87   379.40     0  02:56      0.0809        1.64       0.187
  YS02001923           JUNCTION      0.04   314.89     0  02:55     0.00106        1.55       0.042
  YS02001926           JUNCTION      0.05   268.32     0  02:54     0.00147        1.54       0.226
  YS02001929           JUNCTION    163.23   243.13     0  02:55        1.53        1.53       0.035
  YS02001658           JUNCTION      0.00   661.42     0  02:42           0        2.36       0.991
  YS02001661           JUNCTION      0.00   744.28     0  02:58           0        2.99      -0.174
  YS02001664           JUNCTION    446.68   446.68     0  03:01        2.35        2.99       0.199
  YS02001622           JUNCTION      0.00   338.18     0  03:01           0        2.19       1.463
  YS02001633           JUNCTION    373.80   465.88     0  02:49        2.63        4.14       0.780
  YS02001649           JUNCTION      0.00   982.57     0  02:50           0        5.28       0.705
  YS02001757           JUNCTION      0.00  1928.36     0  02:51           0        9.82       0.949
  YS02001895           JUNCTION      0.00   516.74     0  03:06           0        3.09       0.169
  YS02001625           JUNCTION      0.00   338.08     0  03:01           0        2.16       1.815
  YS02163301           JUNCTION      0.00   222.10     0  02:49           0        1.54       1.572
  YS02163601           JUNCTION      0.11   465.79     0  02:49      0.0031        4.11       0.737
  YS02164001           JUNCTION      0.00   465.73     0  02:49           0        4.09       0.490
  YS02001647           JUNCTION      0.00   707.74     0  02:50           0        4.15       0.681
  YSB1154              JUNCTION     43.21    43.21     0  03:01       0.127       0.128       1.144
  YSB6556              JUNCTION      0.00    41.77     0  03:01           0       0.129       0.980
  YSB1174              JUNCTION     35.94    35.94     0  03:01      0.0924      0.0931       1.403
  YSB1171              JUNCTION      0.00    73.32     0  03:01           0       0.227       2.865
  YS02006553           JUNCTION      0.00   676.96     0  02:52           0        6.17       0.253
  YS02006561           JUNCTION      0.00  1069.73     0  02:53           0        9.02       0.007
  YS02006556           JUNCTION      0.00   677.02     0  02:52           0        6.18       0.186
  YS02006558           JUNCTION    532.26  1070.09     0  02:52         2.9        9.05       0.062
  YS02001783           JUNCTION      0.00  1053.36     0  02:52           0        9.02       0.028
  YS02001784           JUNCTION      1.06  1054.33     0  02:52      0.0299        9.05       0.044
  YS02001786           JUNCTION      0.06  1054.03     0  02:52     0.00159        9.04       0.041
  YS02001788           JUNCTION      0.07  1038.84     0  02:53       0.002        9.04       0.022
  YS02001790           JUNCTION      0.15  1021.57     0  02:52     0.00437        9.04       0.028
  YS02001791           JUNCTION      0.00  1046.74     0  02:51           0        9.04       0.008
  YS02001793           JUNCTION      0.00   986.03     0  02:50           0        9.07      -0.024
  WS02004139           JUNCTION      0.32   393.28     0  00:00     0.00905        4.99       0.536
  WSC                  OUTFALL       0.00  1014.35     0  03:14           0        13.8       0.000
  3                    OUTFALL       0.00   615.97     0  03:03           0        4.76       0.000
  4                    OUTFALL       0.00   346.49     0  03:02           0       0.904       0.000
  5                    OUTFALL       0.00     0.00     0  00:00           0           0       0.000 ltr
  JK-storage           STORAGE       0.00   971.93     0  05:37           0        9.22      -4.300
  CC-storage           STORAGE       0.00  1927.86     0  02:51           0        8.61       0.536
  XR-storage           STORAGE     849.17   849.17     0  03:01        10.2        10.8      -0.001
  
  
  **********************
  Node Surcharge Summary
  **********************
  
  Surcharging occurs when water rises above the top of the highest conduit.
  ---------------------------------------------------------------------
                                               Max. Height   Min. Depth
                                   Hours       Above Crown    Below Rim
  Node                 Type      Surcharged         Meters       Meters
  ---------------------------------------------------------------------
  WS02004401           JUNCTION        0.34          0.116        1.544
  WS02004402           JUNCTION        0.40          0.118        1.622
  WS02004403           JUNCTION        0.41          0.106        1.924
  WS02004404           JUNCTION        0.75          0.158        2.622
  WS02004406           JUNCTION        0.67          0.107        2.343
  WS02004405           JUNCTION        0.71          0.139        2.661
  WS02006109           JUNCTION        2.28          0.457        1.363
  WS02006110           JUNCTION        0.91          0.209        1.641
  WS02006112           JUNCTION        1.02          0.396        1.284
  WS02006115           JUNCTION        0.14          0.060        2.190
  WS02006116           JUNCTION        0.17          0.067        2.223
  WS02006230           JUNCTION        0.76          0.329        1.241
  WS02006231           JUNCTION        0.83          0.336        1.194
  WS02006232           JUNCTION        2.01          0.440        1.040
  WS02006234           JUNCTION        0.96          0.309        0.931
  WS02006235           JUNCTION        1.59          0.333        0.957
  WS02006238           JUNCTION        1.74          0.341        1.089
  WS02006240           JUNCTION        0.94          0.315        1.075
  WS02006242           JUNCTION        1.54          0.273        0.547
  WS02006243           JUNCTION        0.78          0.131        0.639
  WS02006245           JUNCTION        0.44          0.136        0.714
  WS02006247           JUNCTION        0.46          0.119        0.641
  WS02006239           JUNCTION        1.21          0.326        0.964
  WS02006252           JUNCTION        2.34          0.193        0.907
  WS02006228           JUNCTION        2.20          0.567        1.633
  YS02001748           JUNCTION        5.03          1.190        0.000
  YS02001751           JUNCTION        5.15          1.138        0.062
  YS02001754           JUNCTION        5.30          1.150        0.000
  YS02001762           JUNCTION        5.52          1.078        0.072
  YS02001765           JUNCTION        5.49          0.998        0.102
  YS02001767           JUNCTION        5.47          0.950        0.080
  YS02001770           JUNCTION        5.46          0.920        0.000
  YS02001774           JUNCTION        5.51          1.014        0.036
  YS02001779           JUNCTION        5.30          0.680        0.000
  YS02001882           JUNCTION        1.00          0.694        0.136
  YS02001884           JUNCTION        1.03          0.720        0.150
  YS02001759           JUNCTION        5.54          1.112        0.098
  YS02001887           JUNCTION        1.12          0.780        0.170
  YS02001890           JUNCTION        1.15          0.760        0.000
  YS02001898           JUNCTION        0.95          0.541        0.199
  YS02001901           JUNCTION        1.08          0.684        0.186
  YS02001904           JUNCTION        1.06          0.639        0.211
  YS02001907           JUNCTION        1.66          0.950        0.000
  YS02001910           JUNCTION        1.20          0.960        0.140
  YS02001915           JUNCTION        0.98          0.899        0.101
  YS02001918           JUNCTION        0.74          0.810        0.000
  YS02001619           JUNCTION        5.15          0.610        0.000
  YS02001629           JUNCTION        5.16          0.470        0.000
  YS02001641           JUNCTION        5.50          0.951        0.149
  YS02001644           JUNCTION        5.50          0.920        0.000
  YS02001652           JUNCTION        5.39          1.130        0.000
  YS02001655           JUNCTION        5.16          1.200        0.000
  YS02001920           JUNCTION        0.77          1.140        0.000
  YS02001923           JUNCTION        0.01          0.820        0.000
  YS02001926           JUNCTION        0.01          0.709        0.191
  YS02001658           JUNCTION        5.06          1.300        0.000
  YS02001661           JUNCTION        0.23          1.390        0.000
  YS02001622           JUNCTION        5.17          0.620        0.000
  YS02001633           JUNCTION        5.48          0.956        0.104
  YS02001649           JUNCTION        5.52          1.050        0.000
  YS02001757           JUNCTION        5.62          1.210        0.000
  YS02001895           JUNCTION        0.97          0.571        0.179
  YS02001625           JUNCTION        5.43          0.780        0.000
  YS02163301           JUNCTION        5.46          0.916        0.114
  YS02163601           JUNCTION        5.52          1.022        0.058
  YS02164001           JUNCTION        5.49          0.951        0.149
  YS02001647           JUNCTION        5.41          0.820        0.080
  YS02006553           JUNCTION        1.71          1.181        0.009
  YS02006561           JUNCTION        0.84          1.150        0.000
  YS02006556           JUNCTION        1.42          1.350        0.000
  YS02006558           JUNCTION        1.38          1.400        0.000
  YS02001783           JUNCTION        1.37          1.584        0.016
  YS02001784           JUNCTION        1.44          1.428        0.062
  YS02001786           JUNCTION        1.29          1.326        0.104
  YS02001788           JUNCTION        1.27          1.480        0.000
  YS02001790           JUNCTION        2.44          1.157        0.000
  YS02001791           JUNCTION        2.56          1.544        0.376
  YS02001793           JUNCTION        2.77          2.234        0.366
  
  
  *********************
  Node Flooding Summary
  *********************
  
  Flooding refers to all water that overflows a node, whether it ponds or not.
  --------------------------------------------------------------------------
                                                             Total   Maximum
                                 Maximum   Time of Max       Flood    Ponded
                        Hours       Rate    Occurrence      Volume     Depth
  Node                 Flooded       LPS   days hr:min    10^6 ltr    Meters
  --------------------------------------------------------------------------
  YS02001748              0.01    206.20      0  02:46       0.000     0.000
  YS02001754              0.01     22.69      0  02:47       0.000     0.000
  YS02001770              0.01      3.80      0  02:46       0.000     0.000
  YS02001779              2.59    315.94      0  03:40       1.307     0.000
  YS02001890              0.24    107.14      0  03:01       0.038     0.000
  YS02001907              0.60    663.23      0  03:00       0.692     0.000
  YS02001918              0.01     20.48      0  02:55       0.000     0.000
  YS02001619              0.01     45.55      0  02:42       0.000     0.000
  YS02001629              0.01     32.53      0  02:42       0.000     0.000
  YS02001644              4.51   1038.73      0  03:35       6.885     0.000
  YS02001652              0.01     22.17      0  03:07       0.000     0.000
  YS02001655              0.01    195.63      0  02:40       0.000     0.000
  YS02001920              0.01     16.98      0  02:55       0.000     0.000
  YS02001923              0.01     39.76      0  02:55       0.000     0.000
  YS02001658              0.01    416.90      0  02:42       0.001     0.000
  YS02001661              0.01    171.96      0  03:07       0.002     0.000
  YS02001622              0.01     32.93      0  02:41       0.000     0.000
  YS02001649              0.11     49.39      0  03:10       0.007     0.000
  YS02001757              0.01     11.45      0  02:46       0.000     0.000
  YS02001625              1.17    317.48      0  03:01       0.558     0.000
  YS02006561              0.01     33.91      0  02:53       0.000     0.000
  YS02006556              0.01     24.91      0  02:53       0.000     0.000
  YS02006558              0.01     12.07      0  02:53       0.000     0.000
  YS02001788              0.01    135.82      0  02:53       0.000     0.000
  YS02001790              0.01    139.74      0  02:52       0.000     0.000
  JK-storage              2.20    722.51      0  04:00       2.914     0.000
  XR-storage              5.41    820.76      0  03:01       4.892     0.000
  
  
  **********************
  Storage Volume Summary
  **********************
  
  --------------------------------------------------------------------------------------------------
                         Average     Avg  Evap Exfil       Maximum     Max    Time of Max    Maximum
                          Volume    Pcnt  Pcnt  Pcnt        Volume    Pcnt     Occurrence    Outflow
  Storage Unit           1000 m3    Full  Loss  Loss       1000 m3    Full    days hr:min        LPS
  --------------------------------------------------------------------------------------------------
  JK-storage               0.161      55     0     0         0.291     100       0  02:53     731.66
  CC-storage               2.994      19     0     0         3.835      24       0  03:39     400.00
  XR-storage               0.904      98     0     0         0.926     100       0  02:12     380.00
  
  
  ***********************
  Outfall Loading Summary
  ***********************
  
  -----------------------------------------------------------
                         Flow       Avg       Max       Total
                         Freq      Flow      Flow      Volume
  Outfall Node           Pcnt       LPS       LPS    10^6 ltr
  -----------------------------------------------------------
  WSC                   99.99    578.43   1014.35      13.806
  3                     84.36    274.10    615.97       4.758
  4                     38.28    120.38    346.49       0.904
  5                      0.00      0.00      0.00       0.000
  -----------------------------------------------------------
  System                55.66    972.91   1753.31      19.468
  
  
  ********************
  Link Flow Summary
  ********************
  
  -----------------------------------------------------------------------------
                                 Maximum  Time of Max   Maximum    Max/    Max/
                                  |Flow|   Occurrence   |Veloc|    Full    Full
  Link                 Type          LPS  days hr:min     m/sec    Flow   Depth
  -----------------------------------------------------------------------------
  WS02003066WSF200     CONDUIT    810.31     0  03:05      3.12    0.14    0.28
  WS02006287WS02006284 CONDUIT    610.96     0  03:02      2.31    0.28    0.37
  WS02006284WS02006280 CONDUIT    611.95     0  03:02      2.55    0.26    0.35
  WS02006280WS02006229 CONDUIT    611.95     0  03:02      4.11    0.13    0.25
  WS02006229WS02006228 CONDUIT    796.06     0  03:02      1.58    2.64    1.00
  WS02006256WS02006235 CONDUIT    166.25     0  00:01      2.58    1.76    1.00
  WS02006253WS02006251 CONDUIT    134.01     0  03:01      0.53    0.40    1.00
  WS02006252WS02006251 CONDUIT    400.81     0  05:10      3.19    1.47    1.00
  WS02006251WS02006249 CONDUIT    533.96     0  03:02      1.39    1.54    1.00
  WS02006249WS02006248 CONDUIT    354.82     0  05:11      1.16    1.94    0.99
  WS02006248WS02006247 CONDUIT    350.96     0  05:11      1.12    0.76    1.00
  WS02006247WS02006245 CONDUIT    347.57     0  05:11      1.08    2.76    1.00
  WS02006245WS02006243 CONDUIT    344.04     0  05:11      1.16    1.02    1.00
  WS02006243WS02006242 CONDUIT    336.19     0  04:51      1.00    0.72    1.00
  WS02006242WS02006240 CONDUIT    330.70     0  06:42      0.95    1.31    1.00
  WS02006240WS02006239 CONDUIT    325.91     0  06:42      1.00    1.03    1.00
  WS02006239WS02006238 CONDUIT    324.37     0  06:43      0.92    1.04    1.00
  WS02006238WS02006235 CONDUIT    322.72     0  06:42      1.25    0.72    1.00
  WS02006235WS02006234 CONDUIT    393.12     0  06:00      1.04    4.15    1.00
  WS02006234WS02006232 CONDUIT    392.98     0  06:00      1.13    0.79    1.00
  WS02006232WS02006231 CONDUIT    392.98     0  06:00      1.06    0.82    1.00
  WS02006231WS02006230 CONDUIT    392.79     0  06:00      1.35    5.96    1.00
  WS02006230WS02006229 CONDUIT    402.90     0  06:00      1.05    8.97    1.00
  WS02006228WS02006109 CONDUIT    796.04     0  03:02      1.58    3.48    1.00
  WS02006116WS02004401 CONDUIT    813.05     0  03:03      1.04    1.12    1.00
  WS02006115WS02006116 CONDUIT    812.95     0  03:03      1.04    1.04    1.00
  WS02006113WS02006111 CONDUIT    794.85     0  03:03      2.59    0.95    0.77
  WS02006112WS02006115 CONDUIT    812.83     0  03:03      1.03    0.48    1.00
  WS02006111WS02006112 CONDUIT    795.43     0  03:03      1.72    0.38    0.88
  WS02006110WS02006113 CONDUIT    797.21     0  03:02      1.69    0.73    0.89
  WS02006109WS02006110 CONDUIT    797.30     0  03:02      1.59    1.53    1.00
  WS02004411WS02004412 CONDUIT    810.07     0  03:04      1.15    1.15    0.84
  WS02004401WS02004402 CONDUIT    813.08     0  03:03      1.04    0.98    1.00
  WS02004413WS02003067 CONDUIT    810.02     0  03:05      1.40    0.35    0.69
  WS02004412WS02004413 CONDUIT    809.94     0  03:05      1.08    0.54    0.91
  WS02004410WS02004411 CONDUIT    810.60     0  03:04      1.14    1.11    0.85
  WS02004409WS02004410 CONDUIT    811.65     0  03:04      1.14    1.05    0.86
  WS02004407WS02004409 CONDUIT    813.12     0  03:03      1.62    0.29    0.61
  WS02004406WS02004407 CONDUIT    813.35     0  03:03      1.42    0.36    0.68
  WS02004405WS02004406 CONDUIT    813.32     0  03:03      1.04    1.60    1.00
  WS02004404WS02004405 CONDUIT    813.28     0  03:03      1.04    7.97    1.00
  WS02004403WS02004404 CONDUIT    813.11     0  03:03      1.04    0.59    1.00
  WS02004402WS02004403 CONDUIT    813.10     0  03:03      1.04    1.17    1.00
  WS02004139WS02001211 CONDUIT    378.64     0  00:10      0.90    0.48    0.57
  WS02004138WS02004139 CONDUIT    392.96     0  00:00      3.64    0.08    0.42
  WS02003067WS02003066 CONDUIT    810.32     0  03:05      1.53    0.26    0.48
  WS02001213WS02003059 CONDUIT    381.84     0  00:12      0.90    0.63    0.77
  WS02001212WS02001213 CONDUIT    383.67     0  00:11      1.32    0.59    0.45
  WS02001211WS02001212 CONDUIT    384.09     0  00:11      0.78    0.29    0.61
  WS02003072WS02003073 CONDUIT   1012.73     0  03:13      1.77    2.19    0.50
  WS02003069WS02003072 CONDUIT   1012.74     0  03:13      1.66    0.49    0.53
  WS02003060WS02003069 CONDUIT   1012.79     0  03:12      1.90    0.40    0.48
  WS02003059WS02003060 CONDUIT    379.65     0  00:12      0.94    0.25    0.67
  HS02004901HS02004770 CONDUIT     32.24     0  03:01      0.09    0.12    0.50
  HS02004876HS02004881 CONDUIT    119.32     0  03:01      1.17    1.27    0.15
  HS02004870HS02004876 CONDUIT     96.13     0  03:01      0.79    0.06    0.17
  HS02004842HS02004848 CONDUIT     15.11     0  03:01      0.07    0.01    0.33
  HS02004837HS02004842 CONDUIT     16.10     0  03:03      0.41    0.01    0.34
  HS02004830HS02004837 CONDUIT     61.24     0  03:01      0.66    0.06    0.13
  HS02004824HS02004830 CONDUIT     60.78     0  03:01      0.63    0.08    0.15
  HS02004817HS02004824 CONDUIT    117.39     0  03:02      0.30    0.05    0.56
  HS02004770HS02004777 CONDUIT    159.99     0  03:01      0.45    0.29    0.51
  HS02004799HS02004480 CONDUIT    387.38     0  03:01      1.00    0.49    0.56
  HS02004792HS02004799 CONDUIT    353.05     0  03:01      1.12    0.22    0.45
  HS02004788HS02004792 CONDUIT    202.14     0  03:02      1.22    0.13    0.24
  HS02004785HS02004788 CONDUIT    156.68     0  03:02      0.85    1.18    0.26
  HS02004777HS02004785 CONDUIT    157.13     0  03:01      0.53    0.19    0.42
  HS02004480HS02004478 CONDUIT    456.75     0  03:01      1.47    1.92    0.44
  HS02004479HS02004480 CONDUIT     74.07     0  03:02      0.22    0.07    0.53
  HS02004862HS02004870 CONDUIT     73.11     0  03:01      0.77    0.08    0.14
  HS02004848HS02004852 CONDUIT     35.11     0  03:01      0.52    0.04    0.10
  HS02004856HS02004862 CONDUIT     51.23     0  03:01      0.58    0.05    0.13
  HS02004852HS02004856 CONDUIT     35.02     0  03:02      0.32    0.04    0.16
  HS02004802HS02004478 CONDUIT    160.68     0  03:04      0.54    0.14    0.45
  HS02004478WS02006287 CONDUIT    609.83     0  03:02      2.03    0.17    0.33
  HS02004817HS02004807 CONDUIT    120.81     0  03:04      0.24    0.07    0.73
  HS02004807HS02004802 CONDUIT    156.92     0  03:03      0.45    0.30    0.51
  YS02001759YS02001757 CONDUIT    769.98     0  02:55      0.98    0.55    1.00
  YS02001762YS02001759 CONDUIT    383.94     0  02:54      0.49    0.44    1.00
  YS02001765YS02001762 CONDUIT    384.06     0  02:54      0.49    0.36    1.00
  YS02001770YS02001767 CONDUIT    383.64     0  02:54      0.49    1.52    1.00
  YS02001774YS02001770 CONDUIT    315.74     0  03:40      0.40    0.20    1.00
  YS02001779YS02001774 CONDUIT    316.24     0  03:40      0.40    0.16    1.00
  YS02001649YS02001757 CONDUIT    982.51     0  02:50      1.25    0.60    1.00
  YS02001767YS02001765 CONDUIT    384.00     0  02:54      0.49    0.48    1.00
  YS02006561YS02001783 CONDUIT   1053.36     0  02:52      2.26    0.55    1.00
  YS02001783YS02001784 CONDUIT   1053.27     0  02:52      2.10    1.45    1.00
  YS02001784YS02001785 CONDUIT   1053.98     0  02:52      2.11    2.45    1.00
  YS02001788YS02001790 CONDUIT   1021.41     0  02:52      2.56    0.75    1.00
  YS02001790YS02001791 CONDUIT   1046.74     0  02:51      3.19    1.14    1.00
  YS02001791YS02001793 CONDUIT    986.03     0  02:50      6.13    0.42    1.00
  YS02001910YS02001907 CONDUIT    664.03     0  02:56      0.85    0.37    1.00
  YS02001786YS02001788 CONDUIT   1038.77     0  02:53      2.37    2.00    1.00
  YS02001915YS02001910 CONDUIT    664.07     0  02:56      0.85    0.33    1.00
  YS02001918YS02001915 CONDUIT    379.49     0  02:56      0.48    0.21    1.00
  YS02001923YS02001920 CONDUIT    376.53     0  02:56      0.72    0.17    1.00
  YS02001926YS02001923 CONDUIT    314.86     0  02:55      0.82    0.45    1.00
  YS02001929YS02001926 CONDUIT    254.08     0  02:55      0.87    0.12    0.99
  YS02001920YS02001918 CONDUIT    379.33     0  02:56      0.70    0.37    1.00
  YS02001629YS02163301 CONDUIT    222.10     0  02:49      0.28    0.27    1.00
  YS02001619YS02001622 CONDUIT    338.18     0  03:01      0.60    0.50    1.00
  YS02001622YS02001625 CONDUIT    338.08     0  03:01      0.43    0.18    1.00
  YS02001625YS02001629 CONDUIT    221.64     0  02:49      0.28    0.11    1.00
  YS02163301YS02001633 CONDUIT    221.85     0  02:49      0.28    0.21    1.00
  YS02163601YS02164001 CONDUIT    465.73     0  02:49      0.59    0.41    1.00
  YS02164001YS02001641 CONDUIT    465.21     0  02:49      0.59    0.64    1.00
  YS02001641YS02001644 CONDUIT    465.29     0  02:49      0.59    1.50    1.00
  YS02001647YS02001649 CONDUIT    707.65     0  02:50      0.90    0.37    1.00
  YS02006553YS02006556 CONDUIT    677.02     0  02:52      0.86    0.58    1.00
  YS02006556YS02006558 CONDUIT    677.03     0  02:52      0.86    0.53    1.00
  YSB6556YSB1171       CONDUIT     41.32     0  03:02      0.13    0.04    0.80
  YS02001907YS02006553 CONDUIT    676.96     0  02:52      0.75    0.80    1.00
  YS02006558YS02006561 CONDUIT   1069.73     0  02:53      3.78    2.36    1.00
  YS02001633YS02163601 CONDUIT    465.68     0  02:49      0.59    0.49    1.00
  YS02001644YS02001647 CONDUIT    707.74     0  02:50      0.90    0.42    1.00
  YS02001745YS02001748 CONDUIT    538.44     0  02:46      1.48    0.21    0.94
  YS02001748YS02001751 CONDUIT    400.63     0  03:01      1.03    0.20    1.00
  YS02001751YS02001754 CONDUIT    400.83     0  03:01      0.84    0.19    1.00
  YS02001754YS02001757 CONDUIT    400.91     0  03:01      0.51    0.16    1.00
  YS02001882YS02001884 CONDUIT     19.67     0  02:49      0.08    0.02    1.00
  YS02001884YS02001887 CONDUIT     25.00     0  02:47      0.05    0.03    1.00
  YS02001890YS02001895 CONDUIT    516.74     0  03:06      0.66    0.24    1.00
  YS02001895YS02001898 CONDUIT    516.77     0  03:06      0.66    0.90    1.00
  YS02001898YS02001901 CONDUIT    516.85     0  03:06      0.66    0.33    1.00
  YS02001901YS02001904 CONDUIT    516.77     0  03:06      0.66    0.80    1.00
  YS02001904YS02001907 CONDUIT    516.79     0  03:06      0.66    0.18    1.00
  YS02001887YS02001890 CONDUIT    623.35     0  03:01      0.79    1.07    1.00
  YS02001652YS02001649 CONDUIT    483.17     0  03:02      0.62    0.24    1.00
  YS02001655YS02001652 CONDUIT    483.06     0  03:02      0.89    0.23    1.00
  YS02001658YS02001655 CONDUIT    482.99     0  03:02      1.18    0.20    1.00
  YS02001661YS02001658 CONDUIT    661.42     0  02:42      1.56    0.26    1.00
  YS02001664YS02001661 CONDUIT    744.28     0  02:58      1.55    0.23    0.72
  YSB1154YSB6556       CONDUIT     41.77     0  03:01      0.19    0.08    0.69
  YSB1174YSB1171       CONDUIT     34.49     0  03:01      0.10    0.05    0.81
  YSB1171HS02004479    CONDUIT     72.19     0  03:02      0.54    0.05    0.65
  HS02004881HS02006253 CONDUIT    131.62     0  03:01      1.85    0.03    0.39
  YS02001793JiankangQianchi CONDUIT    971.93     0  05:37     16.39    0.08    1.00
  YS02001757CaochengTiaoxuchi CONDUIT   1927.86     0  02:51      2.70    0.85    1.00
  WSF200WS02003060     CONDUIT    809.22     0  03:05      2.28    0.18    0.38
  1                    CONDUIT   1014.35     0  03:14      3.34    0.35    0.41
  2                    CONDUIT    346.49     0  03:02      6.60    0.83    0.70
  3                    CONDUIT    615.97     0  03:03     10.03    0.98    0.81
  4                    CONDUIT      0.00     0  00:00      0.00    0.00    0.00
  CC-Pump-1            PUMP       200.00     0  02:30              1.00
  CC-Pump-2            PUMP       200.00     0  02:50              1.00
  JK-Pump-1            PUMP       300.00     0  02:20              1.00
  JK-Pump-2            PUMP       300.00     0  00:00              1.00
  XR-Pump-1            PUMP        95.00     0  00:00              1.00
  XR-Pump-2            PUMP        95.00     0  00:00              1.00
  XR-Pump-3            PUMP        95.00     0  00:00              1.00
  XR-Pump-4            PUMP        95.00     0  00:00              1.00
  
  
  ***************************
  Flow Classification Summary
  ***************************
  
  -------------------------------------------------------------------------------------
                      Adjusted    ---------- Fraction of Time in Flow Class ---------- 
                       /Actual         Up    Down  Sub   Sup   Up    Down  Norm  Inlet 
  Conduit               Length    Dry  Dry   Dry   Crit  Crit  Crit  Crit  Ltd   Ctrl  
  -------------------------------------------------------------------------------------
  WS02003066WSF200        1.00   0.05  0.01  0.00  0.00  0.94  0.00  0.00  0.63  0.00
  WS02006287WS02006284    1.00   0.04  0.01  0.00  0.57  0.38  0.00  0.00  0.67  0.00
  WS02006284WS02006280    1.00   0.04  0.00  0.00  0.00  0.00  0.00  0.96  0.00  0.00
  WS02006280WS02006229    1.00   0.04  0.00  0.00  0.00  0.01  0.00  0.95  0.00  0.00
  WS02006229WS02006228    1.00   0.00  0.00  0.00  0.99  0.00  0.00  0.01  0.00  0.00
  WS02006256WS02006235    1.00   0.00  0.00  0.00  1.00  0.00  0.00  0.00  0.00  0.00
  WS02006253WS02006251    1.00   0.03  0.01  0.00  0.96  0.00  0.00  0.00  0.00  0.00
  WS02006252WS02006251    1.00   0.07  0.00  0.00  0.00  0.00  0.93  0.00  0.00  0.00
  WS02006251WS02006249    1.00   0.00  0.00  0.00  1.00  0.00  0.00  0.00  0.24  0.00
  WS02006249WS02006248    1.00   0.00  0.02  0.00  0.91  0.00  0.07  0.00  0.00  0.00
  WS02006248WS02006247    1.00   0.02  0.00  0.00  0.98  0.00  0.00  0.00  0.12  0.00
  WS02006247WS02006245    1.00   0.02  0.00  0.00  0.98  0.00  0.00  0.00  0.00  0.00
  WS02006245WS02006243    1.00   0.01  0.00  0.00  0.95  0.00  0.00  0.03  0.01  0.00
  WS02006243WS02006242    1.00   0.01  0.00  0.00  0.99  0.00  0.00  0.00  0.22  0.00
  WS02006242WS02006240    1.00   0.00  0.00  0.00  1.00  0.00  0.00  0.00  0.00  0.00
  WS02006240WS02006239    1.00   0.00  0.00  0.00  0.96  0.00  0.00  0.03  0.01  0.00
  WS02006239WS02006238    1.00   0.00  0.00  0.00  1.00  0.00  0.00  0.00  0.04  0.00
  WS02006238WS02006235    1.00   0.00  0.00  0.00  1.00  0.00  0.00  0.00  0.00  0.00
  WS02006235WS02006234    1.00   0.00  0.00  0.00  0.96  0.00  0.04  0.00  0.00  0.00
  WS02006234WS02006232    1.00   0.00  0.00  0.00  1.00  0.00  0.00  0.00  0.07  0.00
  WS02006232WS02006231    1.00   0.00  0.00  0.00  0.99  0.00  0.00  0.00  0.00  0.00
  WS02006231WS02006230    1.00   0.00  0.00  0.00  0.60  0.00  0.40  0.00  0.00  0.00
  WS02006230WS02006229    1.00   0.00  0.00  0.00  0.99  0.00  0.00  0.01  0.01  0.00
  WS02006228WS02006109    1.00   0.00  0.00  0.00  1.00  0.00  0.00  0.00  0.00  0.00
  WS02006116WS02004401    1.00   0.02  0.00  0.00  0.98  0.00  0.00  0.00  0.00  0.00
  WS02006115WS02006116    1.00   0.02  0.00  0.00  0.97  0.00  0.00  0.01  0.00  0.00
  WS02006113WS02006111    1.00   0.02  0.00  0.00  0.04  0.94  0.00  0.00  0.10  0.00
  WS02006112WS02006115    1.00   0.02  0.00  0.00  0.98  0.00  0.00  0.00  0.00  0.00
  WS02006111WS02006112    1.00   0.02  0.00  0.00  0.98  0.00  0.00  0.00  0.89  0.00
  WS02006110WS02006113    1.00   0.01  0.01  0.00  0.98  0.00  0.00  0.00  0.00  0.00
  WS02006109WS02006110    1.00   0.00  0.01  0.00  0.98  0.00  0.01  0.00  0.00  0.00
  WS02004411WS02004412    1.00   0.04  0.00  0.00  0.96  0.00  0.00  0.00  0.00  0.00
  WS02004401WS02004402    1.00   0.02  0.00  0.00  0.98  0.00  0.00  0.00  0.00  0.00
  WS02004413WS02003067    1.00   0.04  0.01  0.00  0.00  0.00  0.95  0.00  0.00  0.00
  WS02004412WS02004413    1.00   0.04  0.00  0.00  0.96  0.00  0.00  0.00  0.03  0.00
  WS02004410WS02004411    1.00   0.04  0.00  0.00  0.96  0.00  0.00  0.00  0.04  0.00
  WS02004409WS02004410    1.00   0.04  0.00  0.00  0.96  0.00  0.00  0.00  0.03  0.00
  WS02004407WS02004409    1.00   0.04  0.00  0.00  0.96  0.00  0.00  0.00  0.89  0.00
  WS02004406WS02004407    1.00   0.00  0.04  0.00  0.96  0.00  0.00  0.00  0.00  0.00
  WS02004405WS02004406    1.00   0.00  0.00  0.00  1.00  0.00  0.00  0.00  0.01  0.00
  WS02004404WS02004405    1.00   0.00  0.00  0.00  1.00  0.00  0.00  0.00  0.00  0.00
  WS02004403WS02004404    1.00   0.00  0.02  0.00  0.98  0.00  0.00  0.00  0.01  0.00
  WS02004402WS02004403    1.00   0.02  0.00  0.00  0.98  0.00  0.00  0.00  0.00  0.00
  WS02004139WS02001211    1.00   0.00  0.00  0.00  1.00  0.00  0.00  0.00  0.00  0.00
  WS02004138WS02004139    1.00   0.00  0.00  0.00  0.99  0.01  0.00  0.00  1.00  0.00
  WS02003067WS02003066    1.00   0.05  0.01  0.00  0.94  0.00  0.00  0.00  0.00  0.00
  WS02001213WS02003059    1.00   0.00  0.00  0.00  0.99  0.00  0.00  0.00  0.00  0.00
  WS02001212WS02001213    1.00   0.00  0.00  0.00  0.91  0.00  0.09  0.00  0.00  0.00
  WS02001211WS02001212    1.00   0.00  0.00  0.00  1.00  0.00  0.00  0.00  0.00  0.00
  WS02003072WS02003073    1.00   0.00  0.00  0.00  0.00  0.00  0.00  1.00  0.00  0.00
  WS02003069WS02003072    1.00   0.00  0.00  0.00  0.99  0.01  0.00  0.00  0.23  0.00
  WS02003060WS02003069    1.00   0.00  0.00  0.00  0.98  0.02  0.00  0.00  0.15  0.00
  WS02003059WS02003060    1.00   0.00  0.00  0.00  1.00  0.00  0.00  0.00  0.01  0.00
  HS02004901HS02004770    1.00   0.04  0.00  0.00  0.96  0.00  0.00  0.00  0.01  0.00
  HS02004876HS02004881    1.00   0.02  0.00  0.00  0.86  0.12  0.00  0.00  0.00  0.00
  HS02004870HS02004876    1.00   0.00  0.00  0.00  0.99  0.00  0.00  0.00  0.95  0.00
  HS02004842HS02004848    1.00   0.00  0.04  0.00  0.96  0.00  0.00  0.00  0.58  0.00
  HS02004837HS02004842    1.00   0.00  0.00  0.00  0.99  0.01  0.00  0.00  0.11  0.00
  HS02004830HS02004837    1.00   0.00  0.00  0.00  1.00  0.00  0.00  0.00  0.99  0.00
  HS02004824HS02004830    1.00   0.00  0.00  0.00  1.00  0.00  0.00  0.00  0.01  0.00
  HS02004817HS02004824    1.00   0.00  0.00  0.00  1.00  0.00  0.00  0.00  0.98  0.00
  HS02004770HS02004777    1.00   0.00  0.04  0.00  0.96  0.00  0.00  0.00  0.04  0.00
  HS02004799HS02004480    1.00   0.00  0.02  0.00  0.95  0.00  0.02  0.00  0.00  0.00
  HS02004792HS02004799    1.00   0.00  0.00  0.00  0.99  0.01  0.00  0.00  0.98  0.00
  HS02004788HS02004792    1.00   0.00  0.00  0.00  0.99  0.01  0.00  0.00  0.98  0.00
  HS02004785HS02004788    1.00   0.00  0.00  0.00  1.00  0.00  0.00  0.00  0.00  0.00
  HS02004777HS02004785    1.00   0.00  0.00  0.00  1.00  0.00  0.00  0.00  0.15  0.00
  HS02004480HS02004478    1.00   0.04  0.00  0.00  0.65  0.00  0.00  0.31  0.00  0.00
  HS02004479HS02004480    1.00   0.03  0.00  0.00  0.97  0.00  0.00  0.00  0.13  0.00
  HS02004862HS02004870    1.00   0.00  0.00  0.00  1.00  0.00  0.00  0.00  0.06  0.00
  HS02004848HS02004852    1.00   0.04  0.00  0.00  0.96  0.00  0.00  0.00  0.64  0.00
  HS02004856HS02004862    1.00   0.00  0.05  0.00  0.95  0.00  0.00  0.00  0.79  0.00
  HS02004852HS02004856    1.00   0.04  0.00  0.00  0.96  0.00  0.00  0.00  0.81  0.00
  HS02004802HS02004478    1.00   0.04  0.00  0.00  0.96  0.00  0.00  0.00  0.03  0.00
  HS02004478WS02006287    1.00   0.05  0.00  0.00  0.71  0.24  0.00  0.00  0.66  0.00
  HS02004817HS02004807    1.00   0.00  0.04  0.00  0.96  0.00  0.00  0.00  0.01  0.00
  HS02004807HS02004802    1.00   0.04  0.00  0.00  0.96  0.00  0.00  0.00  0.00  0.00
  YS02001759YS02001757    1.00   0.00  0.00  0.00  1.00  0.00  0.00  0.00  0.17  0.00
  YS02001762YS02001759    1.00   0.00  0.00  0.00  1.00  0.00  0.00  0.00  0.04  0.00
  YS02001765YS02001762    1.00   0.00  0.00  0.00  1.00  0.00  0.00  0.00  0.17  0.00
  YS02001770YS02001767    1.00   0.00  0.00  0.00  1.00  0.00  0.00  0.00  0.00  0.00
  YS02001774YS02001770    1.00   0.00  0.04  0.00  0.96  0.00  0.00  0.00  0.04  0.00
  YS02001779YS02001774    1.00   0.00  0.00  0.00  1.00  0.00  0.00  0.00  0.22  0.00
  YS02001649YS02001757    1.00   0.00  0.00  0.00  1.00  0.00  0.00  0.00  0.17  0.00
  YS02001767YS02001765    1.00   0.00  0.00  0.00  1.00  0.00  0.00  0.00  0.01  0.00
  YS02006561YS02001783    1.00   0.06  0.00  0.00  0.44  0.51  0.00  0.00  0.53  0.00
  YS02001783YS02001784    1.00   0.00  0.06  0.00  0.94  0.00  0.00  0.00  0.01  0.00
  YS02001784YS02001785    1.00   0.00  0.00  0.00  1.00  0.00  0.00  0.00  0.21  0.00
  YS02001788YS02001790    1.00   0.00  0.00  0.00  0.50  0.50  0.00  0.00  0.48  0.00
  YS02001790YS02001791    1.00   0.00  0.00  0.00  0.47  0.53  0.00  0.00  0.36  0.00
  YS02001791YS02001793    1.00   0.00  0.00  0.00  0.48  0.52  0.00  0.00  0.03  0.00
  YS02001910YS02001907    1.00   0.00  0.00  0.00  0.98  0.00  0.00  0.02  0.13  0.00
  YS02001786YS02001788    1.00   0.00  0.00  0.00  0.49  0.51  0.00  0.00  0.00  0.00
  YS02001915YS02001910    1.00   0.00  0.00  0.00  0.99  0.01  0.00  0.00  0.19  0.00
  YS02001918YS02001915    1.00   0.00  0.01  0.00  0.98  0.01  0.00  0.00  0.57  0.00
  YS02001923YS02001920    1.00   0.00  0.00  0.00  1.00  0.00  0.00  0.00  0.83  0.00
  YS02001926YS02001923    1.00   0.00  0.03  0.00  0.19  0.00  0.78  0.00  0.00  0.00
  YS02001929YS02001926    1.00   0.00  0.04  0.00  0.96  0.00  0.00  0.00  0.76  0.00
  YS02001920YS02001918    1.00   0.00  0.01  0.00  0.99  0.00  0.00  0.00  0.00  0.00
  YS02001629YS02163301    1.00   0.05  0.00  0.00  0.95  0.00  0.00  0.00  0.00  0.00
  YS02001619YS02001622    1.00   0.04  0.00  0.00  0.96  0.00  0.00  0.00  0.00  0.00
  YS02001622YS02001625    1.00   0.04  0.00  0.00  0.96  0.00  0.00  0.00  0.08  0.00
  YS02001625YS02001629    1.00   0.04  0.02  0.00  0.93  0.00  0.01  0.00  0.00  0.00
  YS02163301YS02001633    1.00   0.00  0.05  0.00  0.95  0.00  0.00  0.00  0.00  0.00
  YS02163601YS02164001    1.00   0.00  0.03  0.00  0.97  0.00  0.00  0.00  0.00  0.00
  YS02164001YS02001641    1.00   0.01  0.02  0.00  0.97  0.00  0.00  0.00  0.06  0.00
  YS02001641YS02001644    1.00   0.00  0.01  0.00  0.99  0.00  0.00  0.00  0.00  0.00
  YS02001647YS02001649    1.00   0.00  0.05  0.00  0.95  0.00  0.00  0.00  0.01  0.00
  YS02006553YS02006556    1.00   0.01  0.00  0.00  0.99  0.00  0.00  0.00  0.03  0.00
  YS02006556YS02006558    1.00   0.00  0.00  0.00  1.00  0.00  0.00  0.00  0.00  0.00
  YSB6556YSB1171          1.00   0.03  0.01  0.00  0.96  0.00  0.00  0.00  0.00  0.00
  YS02001907YS02006553    1.00   0.00  0.02  0.00  0.98  0.00  0.00  0.00  0.00  0.00
  YS02006558YS02006561    1.00   0.06  0.00  0.00  0.20  0.74  0.00  0.00  0.45  0.00
  YS02001633YS02163601    1.00   0.00  0.01  0.00  0.99  0.00  0.00  0.00  0.16  0.00
  YS02001644YS02001647    1.00   0.00  0.05  0.00  0.95  0.00  0.00  0.00  0.00  0.00
  YS02001745YS02001748    1.00   0.00  0.00  0.00  0.90  0.01  0.00  0.09  0.04  0.00
  YS02001748YS02001751    1.00   0.00  0.00  0.00  0.98  0.02  0.00  0.00  0.15  0.00
  YS02001751YS02001754    1.00   0.00  0.00  0.00  0.94  0.00  0.00  0.06  0.02  0.00
  YS02001754YS02001757    1.00   0.00  0.00  0.00  0.99  0.01  0.00  0.00  0.21  0.00
  YS02001882YS02001884    1.00   0.05  0.00  0.00  0.95  0.00  0.00  0.00  0.00  0.00
  YS02001884YS02001887    1.00   0.03  0.01  0.00  0.96  0.00  0.00  0.00  0.00  0.00
  YS02001890YS02001895    1.00   0.00  0.05  0.00  0.95  0.00  0.00  0.00  0.00  0.00
  YS02001895YS02001898    1.00   0.05  0.00  0.00  0.94  0.00  0.01  0.00  0.00  0.00
  YS02001898YS02001901    1.00   0.05  0.00  0.00  0.95  0.00  0.00  0.00  0.03  0.00
  YS02001901YS02001904    1.00   0.05  0.00  0.00  0.95  0.00  0.00  0.00  0.00  0.00
  YS02001904YS02001907    1.00   0.00  0.05  0.00  0.95  0.00  0.00  0.00  0.00  0.00
  YS02001887YS02001890    1.00   0.00  0.00  0.00  0.98  0.00  0.02  0.00  0.00  0.00
  YS02001652YS02001649    1.00   0.00  0.00  0.00  1.00  0.00  0.00  0.00  0.19  0.00
  YS02001655YS02001652    1.00   0.00  0.00  0.00  0.94  0.00  0.00  0.06  0.03  0.00
  YS02001658YS02001655    1.00   0.00  0.04  0.00  0.93  0.02  0.00  0.00  0.13  0.00
  YS02001661YS02001658    1.00   0.04  0.00  0.00  0.89  0.06  0.00  0.00  0.09  0.00
  YS02001664YS02001661    1.00   0.04  0.00  0.00  0.88  0.08  0.00  0.00  0.22  0.00
  YSB1154YSB6556          1.00   0.04  0.00  0.00  0.96  0.00  0.00  0.00  0.02  0.00
  YSB1174YSB1171          1.00   0.03  0.01  0.00  0.96  0.00  0.00  0.00  0.00  0.00
  YSB1171HS02004479       1.00   0.03  0.00  0.00  0.97  0.00  0.00  0.00  0.11  0.00
  HS02004881HS02006253    1.00   0.03  0.00  0.00  0.78  0.01  0.00  0.17  0.62  0.00
  YS02001793JiankangQianchi    1.00   0.00  0.00  0.00  0.71  0.29  0.00  0.00  0.24  0.00
  YS02001757CaochengTiaoxuchi    1.00   0.00  0.07  0.00  0.93  0.00  0.00  0.00  0.00  0.00
  WSF200WS02003060        1.00   0.00  0.05  0.00  0.36  0.59  0.00  0.00  0.29  0.00
  1                       1.00   0.00  0.00  0.00  0.00  1.00  0.00  0.00  0.40  0.00
  2                       1.00   0.62  0.00  0.00  0.00  0.38  0.00  0.00  0.07  0.00
  3                       1.00   0.16  0.00  0.00  0.00  0.84  0.00  0.00  0.30  0.00
  4                       1.00   1.00  0.00  0.00  0.00  0.00  0.00  0.00  0.00  0.00
  
  
  *************************
  Conduit Surcharge Summary
  *************************
  
  ----------------------------------------------------------------------------
                                                           Hours        Hours 
                         --------- Hours Full --------   Above Full   Capacity
  Conduit                Both Ends  Upstream  Dnstream   Normal Flow   Limited
  ----------------------------------------------------------------------------
  WS02006229WS02006228        2.20      2.37      2.20      4.72         2.20
  WS02006256WS02006235        5.99      5.99      7.23      3.06         0.01
  WS02006253WS02006251        0.36      0.36      0.51      0.01         0.01
  WS02006252WS02006251        1.48      1.48      2.34      2.12         0.01
  WS02006251WS02006249        0.08      0.39      0.08      1.60         0.08
  WS02006249WS02006248        0.01      0.01      0.08      4.57         0.01
  WS02006248WS02006247        0.09      0.09      0.45      0.01         0.01
  WS02006247WS02006245        0.44      0.54      0.44      4.93         0.43
  WS02006245WS02006243        0.50      0.50      0.78      0.05         0.01
  WS02006243WS02006242        0.85      0.85      1.54      0.01         0.01
  WS02006242WS02006240        0.94      0.94      1.73      1.64         0.01
  WS02006240WS02006239        1.09      1.09      1.21      0.08         0.01
  WS02006239WS02006238        1.68      1.68      1.74      0.11         0.01
  WS02006238WS02006235        1.68      1.68      1.92      0.01         0.01
  WS02006235WS02006234        0.96      0.96      1.59      6.01         0.01
  WS02006234WS02006232        1.12      1.12      2.01      0.01         0.01
  WS02006232WS02006231        0.83      0.83      2.01      0.01         0.01
  WS02006231WS02006230        0.76      0.76      0.85      6.02         0.01
  WS02006230WS02006229        3.01      4.37      3.01      6.13         3.01
  WS02006228WS02006109        2.28      2.75      2.28      5.65         2.28
  WS02006116WS02004401        0.34      0.34      0.34      0.25         0.25
  WS02006115WS02006116        0.17      0.17      0.17      0.11         0.11
  WS02006112WS02006115        0.14      0.14      1.02      0.01         0.01
  WS02006111WS02006112        0.01      0.01      4.93      0.01         0.01
  WS02006110WS02006113        0.01      0.01      2.56      0.01         0.01
  WS02006109WS02006110        0.91      0.91      2.74      0.92         0.01
  WS02004411WS02004412        0.01      0.01      0.01      0.30         0.01
  WS02004401WS02004402        0.34      0.34      0.40      0.01         0.01
  WS02004410WS02004411        0.01      0.01      0.01      0.23         0.01
  WS02004409WS02004410        0.01      0.01      0.01      0.12         0.01
  WS02004406WS02004407        0.01      0.01      0.67      0.01         0.01
  WS02004405WS02004406        0.67      0.71      0.67      0.97         0.67
  WS02004404WS02004405        0.71      0.75      0.71      5.89         0.71
  WS02004403WS02004404        0.41      0.41      0.75      0.01         0.01
  WS02004402WS02004403        0.40      0.40      0.41      0.32         0.33
  WS02003072WS02003073        0.01      0.01      0.01      4.56         0.01
  HS02004876HS02004881        0.01      0.01      0.01      0.17         0.01
  HS02004785HS02004788        0.01      0.01      0.01      0.10         0.01
  HS02004480HS02004478        0.01      0.01      0.01      0.52         0.01
  YS02001759YS02001757        5.54      5.54      5.62      0.01         0.01
  YS02001762YS02001759        5.52      5.52      5.54      0.01         0.01
  YS02001765YS02001762        5.49      5.49      5.52      0.01         0.01
  YS02001770YS02001767        5.47      5.47      5.47      0.32         0.78
  YS02001774YS02001770        5.46      5.46      5.51      0.01         0.01
  YS02001779YS02001774        5.30      5.30      5.51      0.01         0.01
  YS02001649YS02001757        5.52      5.52      5.62      0.01         0.01
  YS02001767YS02001765        5.47      5.47      5.49      0.01         0.01
  YS02006561YS02001783        0.84      0.84      1.37      0.01         0.01
  YS02001783YS02001784        1.35      1.37      1.44      1.37         1.16
  YS02001784YS02001785        1.28      1.44      1.28      2.19         1.28
  YS02001788YS02001790        1.27      1.27      2.44      0.01         0.01
  YS02001790YS02001791        2.44      2.44      2.56      0.77         0.70
  YS02001791YS02001793        2.56      2.56      2.83      0.01         0.01
  YS02001910YS02001907        1.20      1.20      1.66      0.01         0.01
  YS02001786YS02001788        1.27      1.29      1.27      1.84         1.26
  YS02001915YS02001910        0.98      0.98      1.20      0.01         0.01
  YS02001918YS02001915        0.74      0.74      0.98      0.01         0.01
  YS02001923YS02001920        0.56      0.56      0.77      0.01         0.01
  YS02001926YS02001923        0.01      0.01      0.01      0.01         0.01
  YS02001929YS02001926        0.01      0.01      0.01      0.01         0.01
  YS02001920YS02001918        0.73      0.74      0.77      0.01         0.01
  YS02001629YS02163301        5.45      5.45      5.46      0.01         0.01
  YS02001619YS02001622        5.15      5.15      5.17      0.01         0.01
  YS02001622YS02001625        5.17      5.17      5.43      0.01         0.01
  YS02001625YS02001629        5.16      5.16      5.43      0.01         0.01
  YS02163301YS02001633        5.46      5.46      5.49      0.01         0.01
  YS02163601YS02164001        5.49      5.49      5.52      0.01         0.01
  YS02164001YS02001641        5.49      5.49      5.50      0.01         0.02
  YS02001641YS02001644        5.50      5.50      5.50      1.47         1.51
  YS02001647YS02001649        5.41      5.41      5.52      0.01         0.01
  YS02006553YS02006556        1.42      1.42      1.71      0.01         0.01
  YS02006556YS02006558        1.55      1.55      1.79      0.01         0.01
  YS02001907YS02006553        2.24      2.24      2.45      0.01         0.01
  YS02006558YS02006561        1.00      1.38      1.00      2.09         1.00
  YS02001633YS02163601        5.48      5.48      5.52      0.01         0.01
  YS02001644YS02001647        5.41      5.41      5.50      0.01         0.01
  YS02001745YS02001748        0.01      0.01      5.03      0.01         0.01
  YS02001748YS02001751        5.06      5.06      5.15      0.01         0.01
  YS02001751YS02001754        5.15      5.15      5.30      0.01         0.01
  YS02001754YS02001757        5.41      5.41      5.62      0.01         0.01
  YS02001882YS02001884        1.00      1.00      1.03      0.01         0.01
  YS02001884YS02001887        1.09      1.09      1.12      0.01         0.01
  YS02001890YS02001895        0.97      0.97      1.22      0.01         0.01
  YS02001895YS02001898        0.95      0.95      0.97      0.01         0.01
  YS02001898YS02001901        0.97      0.97      1.08      0.01         0.01
  YS02001901YS02001904        1.06      1.06      1.08      0.01         0.01
  YS02001904YS02001907        1.06      1.06      1.74      0.01         0.01
  YS02001887YS02001890        1.15      1.15      1.18      0.07         0.01
  YS02001652YS02001649        5.42      5.42      5.52      0.01         0.01
  YS02001655YS02001652        5.16      5.16      5.39      0.01         0.01
  YS02001658YS02001655        5.06      5.06      5.16      0.01         0.01
  YS02001661YS02001658        0.21      0.21      5.06      0.01         0.02
  YS02001664YS02001661        0.01      0.01      1.16      0.01         0.01
  YS02001793JiankangQianchi        2.77      2.77      4.03      0.01         0.01
  YS02001757CaochengTiaoxuchi        4.82      4.82      5.62      0.01         0.01
  
  
  ***************
  Pumping Summary
  ***************
  
  ---------------------------------------------------------------------------------------------------------
                                                  Min       Avg       Max     Total     Power    % Time Off
                        Percent   Number of      Flow      Flow      Flow    Volume     Usage    Pump Curve
  Pump                 Utilized   Start-Ups       LPS       LPS       LPS  10^6 ltr     Kw-hr    Low   High
  ---------------------------------------------------------------------------------------------------------
  CC-Pump-1               70.15           6      0.00    159.12    200.00     3.095      4.15    0.0    7.7
  CC-Pump-2               53.14           6      0.00    127.82    200.00     1.895      2.97    0.0   10.1
  JK-Pump-1               65.93           9      0.00    193.98    300.00     2.979     31.67    0.0    0.0
  JK-Pump-2               76.61           7      0.00    201.96    300.00     3.715     39.13    0.0    0.0
  XR-Pump-1               76.59          10      0.00     59.04     95.00     1.283      8.15    0.0    0.0
  XR-Pump-2               72.33           8      0.00     68.97     95.00     1.340      8.66    0.0    0.0
  XR-Pump-3               65.95          11      0.00     63.08     95.00     1.169      6.95    0.0    0.0
  XR-Pump-4               68.07           9      0.00     61.83     95.00     1.197      7.43    0.0    0.0
  

  Analysis begun on:  Tue Dec 14 21:02:39 2021
  Analysis ended on:  Tue Dec 14 21:02:43 2021
  Total elapsed time: 00:00:04