
  EPA STORM WATER MANAGEMENT MODEL - VERSION 5.1 (Build 5.3.0.dev0)
  --------------------------------------------------------------

  WARNING 04: minimum elevation drop used for Conduit WS02004404WS02004405
  WARNING 03: negative offset ignored for Link YS02001904YS02001907
  
  *********************************************************
  NOTE: The summary statistics displayed in this report are
  based on results found at every computational time step,  
  not just on results from each reporting time step.
  *********************************************************
  
  ****************
  Analysis Options
  ****************
  Flow Units ............... LPS
  Process Models:
    Rainfall/Runoff ........ YES
    RDII ................... NO
    Snowmelt ............... NO
    Groundwater ............ NO
    Flow Routing ........... YES
    Ponding Allowed ........ NO
    Water Quality .......... NO
  Infiltration Method ...... HORTON
  Flow Routing Method ...... DYNWAVE
  Surcharge Method ......... EXTRAN
  Starting Date ............ 08/28/2015 08:00:00
  Ending Date .............. 08/28/2015 15:50:00
  Antecedent Dry Days ...... 8.0
  Report Time Step ......... 00:01:00
  Wet Time Step ............ 00:01:00
  Dry Time Step ............ 00:01:00
  Routing Time Step ........ 5.00 sec
  Variable Time Step ....... YES
  Maximum Trials ........... 8
  Number of Threads ........ 4
  Head Tolerance ........... 0.001500 m
  
  
  **************************        Volume         Depth
  Runoff Quantity Continuity     hectare-m            mm
  **************************     ---------       -------
  Total Precipitation ......         3.868         8.469
  Evaporation Loss .........         0.000         0.000
  Infiltration Loss ........         0.985         2.157
  Surface Runoff ...........         1.916         4.194
  Final Storage ............         0.968         2.119
  Continuity Error (%) .....        -0.017
  
  
  **************************        Volume        Volume
  Flow Routing Continuity        hectare-m      10^6 ltr
  **************************     ---------     ---------
  Dry Weather Inflow .......         0.616         6.165
  Wet Weather Inflow .......         1.915        19.148
  Groundwater Inflow .......         0.000         0.000
  RDII Inflow ..............         0.000         0.000
  External Inflow ..........         0.102         1.024
  External Outflow .........         1.697        16.969
  Flooding Loss ............         0.468         4.683
  Evaporation Loss .........         0.000         0.000
  Exfiltration Loss ........         0.000         0.000
  Initial Stored Volume ....         0.076         0.761
  Final Stored Volume ......         0.622         6.223
  Continuity Error (%) .....        -2.875
  
  
  *************************
  Highest Continuity Errors
  *************************
  Node YS02001774 (37.38%)
  Node HS02004842 (20.90%)
  Node YS02001884 (14.40%)
  Node JK-storage (-13.38%)
  Node YSB1171 (4.66%)
  
  
  ***************************
  Time-Step Critical Elements
  ***************************
  Link WS02006252WS02006251 (56.34%)
  Link 3 (33.43%)
  Link WS02006238WS02006235 (4.37%)
  Link WS02006280WS02006229 (1.41%)
  
  
  ********************************
  Highest Flow Instability Indexes
  ********************************
  Link WS02006113WS02006111 (38)
  Link YS02001779YS02001774 (28)
  Link YS02001774YS02001770 (28)
  Link YS02001619YS02001622 (26)
  Link WS02006111WS02006112 (24)
  
  
  *************************
  Routing Time Step Summary
  *************************
  Minimum Time Step           :     0.07 sec
  Average Time Step           :     0.81 sec
  Maximum Time Step           :     5.00 sec
  Percent in Steady State     :    -0.00
  Average Iterations per Step :     4.28
  Percent Not Converging      :    21.87
  
  
  ***************************
  Subcatchment Runoff Summary
  ***************************
  
  ------------------------------------------------------------------------------------------------------------------------------
                            Total      Total      Total      Total     Imperv       Perv      Total       Total     Peak  Runoff
                           Precip      Runon       Evap      Infil     Runoff     Runoff     Runoff      Runoff   Runoff   Coeff
  Subcatchment                 mm         mm         mm         mm         mm         mm         mm    10^6 ltr      LPS
  ------------------------------------------------------------------------------------------------------------------------------
  sub0                       8.47       0.00       0.00       0.59       6.61       0.00       6.61        0.01     1.03   0.781
  sub1                       8.47       0.00       0.00       0.93       6.28       0.00       6.28        0.04     7.43   0.741
  sub2                       8.47       0.00       0.00       3.13       4.43       0.00       4.43        0.04     7.08   0.523
  sub3                       8.47       0.00       0.00       3.13       4.39       0.00       4.39        0.10    15.91   0.518
  sub4                       8.47       0.00       0.00       0.93       6.13       0.00       6.13        0.13    19.23   0.724
  sub5                       8.47       0.00       0.00       0.59       6.56       0.00       6.56        0.07    13.22   0.775
  sub7                       8.47       0.00       0.00       0.76       6.45       0.00       6.45        0.02     4.04   0.762
  sub8                       8.47       0.00       0.00       0.76       6.44       0.00       6.44        0.04     7.54   0.761
  sub9                       8.47       0.00       0.00       0.76       6.44       0.00       6.44        0.03     5.65   0.760
  sub10                      8.47       0.00       0.00       0.68       6.50       0.00       6.50        0.07    12.87   0.767
  sub11                      8.47       0.00       0.00       0.68       6.52       0.00       6.52        0.08    13.93   0.769
  sub12                      8.47       0.00       0.00       1.10       6.18       0.00       6.18        0.05    10.23   0.730
  sub14                      8.47       0.00       0.00       0.76       6.44       0.00       6.44        0.06    11.15   0.760
  sub15                      8.47       0.00       0.00       2.54       4.95       0.00       4.95        0.09    15.40   0.584
  sub16                      8.47       0.00       0.00       2.79       4.76       0.00       4.76        0.05     9.37   0.561
  sub17                      8.47       0.00       0.00       2.71       4.82       0.00       4.82        0.04     7.75   0.570
  sub22                      8.47       0.00       0.00       3.64       4.04       0.00       4.04        0.26    47.08   0.477
  sub23                      8.47       0.00       0.00       3.13       4.46       0.00       4.46        0.21    39.46   0.527
  sub60                      8.47       0.00       0.00       1.02       4.75       0.00       4.75        1.44   149.28   0.561
  sub61                      8.47       0.00       0.00       1.44       4.95       0.00       4.95        1.53   180.35   0.585
  sub62                      8.47       0.00       0.00       0.68       5.35       0.00       5.35        1.64   187.08   0.631
  sub63                      8.47       0.00       0.00       2.46       4.37       0.00       4.37        1.32   164.01   0.516
  sub64                      8.47       0.00       0.00       1.27       4.55       0.00       4.55        1.38   141.99   0.537
  sub65                      8.47       0.00       0.00       1.10       4.62       0.00       4.62        1.42   144.28   0.545
  sub66                      8.47       0.00       0.00       2.46       3.94       0.00       3.94        1.21   129.20   0.465
  sub67                      8.47       0.00       0.00       0.68       5.75       0.00       5.75        1.78   226.25   0.679
  sub68                      8.47       0.00       0.00       1.19       5.24       0.00       5.24        1.61   196.27   0.618
  sub69                      8.47       0.00       0.00       1.27       5.53       0.00       5.53        1.29   176.57   0.653
  sub70                      8.47       5.64       0.00       4.80       7.11       0.00       7.11        1.63   167.69   0.504
  sub71                      8.47       0.00       0.00       0.68       5.16       0.00       5.16        1.22   132.38   0.610
  sub72                      8.47       0.00       0.00       0.59       3.87       0.00       3.87        0.79    64.98   0.457
  sub73                      8.47       6.92       0.00       5.23       7.51       0.00       7.51        1.76   149.38   0.488
  sub74                      8.47       0.00       0.00       6.35       1.66       0.00       1.66        0.66    93.55   0.196
  
  
  ******************
  Node Depth Summary
  ******************
  
  ---------------------------------------------------------------------------------
                                 Average  Maximum  Maximum  Time of Max    Reported
                                   Depth    Depth      HGL   Occurrence   Max Depth
  Node                 Type       Meters   Meters   Meters  days hr:min      Meters
  ---------------------------------------------------------------------------------
  WS02001211           JUNCTION     0.63     0.77     5.61     0  04:00        0.77
  WS02001212           JUNCTION     0.36     0.48     5.54     0  04:01        0.48
  WS02001213           JUNCTION     0.60     0.72     5.48     0  04:01        0.72
  WS02003069           JUNCTION     0.43     0.54     5.12     0  03:13        0.54
  WS02003072           JUNCTION     0.49     0.60     4.97     0  03:13        0.60
  WS02003073           JUNCTION     0.29     0.37     4.43     0  03:14        0.37
  WS02003060           JUNCTION     0.38     0.48     5.41     0  03:12        0.48
  WS02003066           JUNCTION     0.24     0.29     5.85     0  03:10        0.29
  WS02003059           JUNCTION     0.66     0.77     5.46     0  04:02        0.77
  WS02003067           JUNCTION     0.58     0.69     6.01     0  03:10        0.69
  WS02004401           JUNCTION     0.68     0.84     6.84     0  03:07        0.84
  WS02004402           JUNCTION     0.71     0.87     6.83     0  03:07        0.87
  WS02004403           JUNCTION     0.73     0.88     6.81     0  03:07        0.88
  WS02004404           JUNCTION     0.81     0.95     6.80     0  03:07        0.95
  WS02004406           JUNCTION     0.81     0.95     6.78     0  03:07        0.95
  WS02004409           JUNCTION     0.50     0.65     6.42     0  03:09        0.65
  WS02004410           JUNCTION     0.52     0.67     6.39     0  03:09        0.67
  WS02004411           JUNCTION     0.54     0.68     6.36     0  03:09        0.68
  WS02004412           JUNCTION     0.55     0.69     6.33     0  03:10        0.69
  WS02004413           JUNCTION     0.71     0.85     6.32     0  03:10        0.85
  WS02004405           JUNCTION     0.80     0.95     6.80     0  03:07        0.95
  WS02006109           JUNCTION     0.76     0.96     7.58     0  03:03        0.96
  WS02006110           JUNCTION     0.76     0.92     7.50     0  03:03        0.91
  WS02006111           JUNCTION     0.22     0.28     6.99     0  03:04        0.28
  WS02006112           JUNCTION     0.85     1.06     6.95     0  03:05        1.06
  WS02006113           JUNCTION     0.35     0.45     7.34     0  03:03        0.45
  WS02006115           JUNCTION     0.57     0.74     6.88     0  03:06        0.74
  WS02006116           JUNCTION     0.65     0.82     6.86     0  03:07        0.82
  WS02006230           JUNCTION     0.73     1.01     7.75     0  03:03        1.00
  WS02006231           JUNCTION     0.48     0.68     7.80     0  03:03        0.68
  WS02006232           JUNCTION     0.62     0.81     7.85     0  03:03        0.81
  WS02006234           JUNCTION     0.54     0.75     7.90     0  03:03        0.74
  WS02006235           JUNCTION     0.57     0.78     7.94     0  03:03        0.78
  WS02006238           JUNCTION     0.59     0.81     7.95     0  03:03        0.80
  WS02006240           JUNCTION     0.49     0.73     8.02     0  03:02        0.73
  WS02006242           JUNCTION     0.55     0.80     8.07     0  03:02        0.79
  WS02006243           JUNCTION     0.43     0.68     8.10     0  03:02        0.68
  WS02006245           JUNCTION     0.41     0.65     8.13     0  03:02        0.65
  WS02006247           JUNCTION     0.42     0.65     8.15     0  03:02        0.65
  WS02006248           JUNCTION     0.37     0.59     8.17     0  04:10        0.59
  WS02006249           JUNCTION     0.40     0.60     8.20     0  04:10        0.60
  WS02006239           JUNCTION     0.55     0.78     7.99     0  03:02        0.78
  WS02006251           JUNCTION     0.39     0.63     8.30     0  03:00        0.62
  WS02006252           JUNCTION     0.35     0.59     8.83     0  04:03        0.59
  WS02006253           JUNCTION     0.42     0.65     8.30     0  03:00        0.65
  WS02006256           JUNCTION     1.02     1.21     8.14     0  03:10        1.21
  WS02004138           JUNCTION     0.14     0.19     7.44     0  00:30        0.19
  WS02004407           JUNCTION     0.23     0.29     6.60     0  03:08        0.29
  WS02006228           JUNCTION     0.76     1.00     7.65     0  03:03        1.00
  WS02006229           JUNCTION     0.74     0.99     7.69     0  03:03        0.99
  WS02006280           JUNCTION     0.06     0.14     8.41     0  02:27        0.14
  WS02006284           JUNCTION     0.36     0.48     8.88     0  02:27        0.48
  WS02006287           JUNCTION     0.09     0.21     9.16     0  02:27        0.21
  WSF200               JUNCTION     0.22     0.30     5.54     0  03:10        0.30
  HS02004901           JUNCTION     0.12     0.22    10.04     0  02:25        0.22
  HS02004881           JUNCTION     0.01     0.02     9.05     0  02:26        0.02
  HS02004876           JUNCTION     0.04     0.10     9.13     0  02:25        0.10
  HS02004870           JUNCTION     0.01     0.04     9.33     0  02:26        0.04
  HS02004862           JUNCTION     0.02     0.05     9.43     0  02:27        0.05
  HS02004856           JUNCTION     0.08     0.11     9.53     0  02:26        0.11
  HS02004852           JUNCTION     0.01     0.03     9.54     0  02:27        0.03
  HS02004848           JUNCTION     0.01     0.03     9.63     0  02:26        0.03
  HS02004842           JUNCTION     0.33     0.36     9.63     0  02:26        0.36
  HS02004837           JUNCTION     0.03     0.05     9.63     0  02:26        0.05
  HS02004830           JUNCTION     0.04     0.06     9.53     0  02:26        0.06
  HS02004824           JUNCTION     0.02     0.04     9.45     0  02:27        0.04
  HS02004817           JUNCTION     0.43     0.53     9.37     0  02:27        0.53
  HS02004807           JUNCTION     0.12     0.20     9.37     0  02:27        0.20
  HS02004802           JUNCTION     0.16     0.24     9.37     0  02:27        0.24
  HS02004799           JUNCTION     0.11     0.25     9.46     0  02:25        0.25
  HS02004792           JUNCTION     0.03     0.09     9.62     0  02:25        0.09
  HS02004788           JUNCTION     0.02     0.07     9.97     0  02:26        0.07
  HS02004785           JUNCTION     0.04     0.13    10.03     0  02:25        0.13
  HS02004777           JUNCTION     0.14     0.24    10.04     0  02:25        0.24
  HS02004770           JUNCTION     0.11     0.21    10.04     0  02:25        0.21
  HS02004480           JUNCTION     0.07     0.19     9.43     0  02:26        0.19
  HS02004479           JUNCTION     0.11     0.23     9.43     0  02:25        0.23
  HS02004478           JUNCTION     0.06     0.12     9.35     0  02:26        0.12
  YS02001745           JUNCTION     0.63     0.86     8.37     0  04:51        0.86
  YS02001748           JUNCTION     1.01     1.41     8.49     0  03:19        1.29
  YS02001751           JUNCTION     1.19     2.20     9.08     0  02:54        1.49
  YS02001754           JUNCTION     1.45     2.11     8.72     0  02:54        1.77
  YS02001762           JUNCTION     1.65     2.02     8.42     0  03:55        1.98
  YS02001765           JUNCTION     1.60     1.96     8.41     0  04:12        1.93
  YS02001767           JUNCTION     1.56     1.92     8.41     0  03:51        1.89
  YS02001770           JUNCTION     1.56     1.90     8.40     0  03:51        1.88
  YS02001774           JUNCTION     1.63     1.97     8.39     0  03:50        1.95
  YS02001779           JUNCTION     1.37     1.68     8.37     0  03:07        1.68
  YS02001882           JUNCTION     0.36     0.64     7.36     0  03:03        0.63
  YS02001884           JUNCTION     0.45     0.73     7.35     0  03:03        0.73
  YS02001759           JUNCTION     1.68     2.05     8.41     0  04:12        2.02
  YS02001887           JUNCTION     0.53     0.81     7.35     0  03:04        0.81
  YS02001890           JUNCTION     0.56     0.84     7.35     0  03:04        0.84
  YS02001898           JUNCTION     0.33     0.60     7.34     0  03:04        0.59
  YS02001901           JUNCTION     0.45     0.72     7.33     0  03:02        0.72
  YS02001904           JUNCTION     0.43     0.70     7.33     0  03:01        0.70
  YS02001907           JUNCTION     0.76     1.06     7.35     0  03:02        1.06
  YS02001910           JUNCTION     0.55     0.82     7.33     0  03:02        0.82
  YS02001915           JUNCTION     0.34     0.61     7.33     0  03:02        0.61
  YS02001918           JUNCTION     0.11     0.27     7.33     0  03:03        0.26
  YS02001619           JUNCTION     1.16     1.61     8.54     0  03:11        1.47
  YS02001629           JUNCTION     1.51     1.85     8.40     0  03:15        1.85
  YS02001641           JUNCTION     1.62     1.95     8.38     0  03:40        1.94
  YS02001644           JUNCTION     1.62     1.92     8.35     0  03:37        1.92
  YS02001652           JUNCTION     1.46     2.14     8.74     0  03:02        1.81
  YS02001655           JUNCTION     1.22     2.20     9.05     0  02:51        1.57
  YS02001920           JUNCTION     0.21     0.34     7.35     0  03:03        0.34
  YS02001923           JUNCTION     0.08     0.12     7.38     0  03:02        0.12
  YS02001926           JUNCTION     0.17     0.23     7.67     0  03:02        0.23
  YS02001929           JUNCTION     0.09     0.12     7.81     0  03:01        0.12
  YS02001658           JUNCTION     0.95     2.30     9.44     0  03:02        1.30
  YS02001661           JUNCTION     0.73     1.87     9.27     0  03:50        1.05
  YS02001664           JUNCTION     0.31     0.56     8.49     0  04:15        0.54
  YS02001622           JUNCTION     1.18     1.62     8.52     0  03:11        1.49
  YS02001633           JUNCTION     1.60     1.95     8.41     0  03:23        1.95
  YS02001649           JUNCTION     1.66     2.05     8.44     0  03:09        2.00
  YS02001757           JUNCTION     1.78     2.15     8.42     0  03:56        2.12
  YS02001895           JUNCTION     0.32     0.59     7.34     0  03:02        0.59
  YS02001625           JUNCTION     1.46     1.78     8.38     0  03:14        1.78
  YS02163301           JUNCTION     1.54     1.90     8.42     0  03:18        1.88
  YS02163601           JUNCTION     1.66     2.01     8.41     0  03:40        2.00
  YS02164001           JUNCTION     1.60     1.94     8.40     0  03:40        1.93
  YS02001647           JUNCTION     1.45     1.80     8.41     0  03:51        1.76
  YSB1154              JUNCTION     0.25     0.38     9.43     0  02:26        0.38
  YSB6556              JUNCTION     0.14     0.26     9.43     0  02:26        0.26
  YSB1174              JUNCTION     0.20     0.32     9.43     0  02:26        0.32
  YSB1171              JUNCTION     0.40     0.53     9.43     0  02:25        0.53
  YS02006553           JUNCTION     0.76     1.06     7.35     0  03:05        1.05
  YS02006561           JUNCTION     0.18     0.33     6.99     0  03:03        0.32
  YS02006556           JUNCTION     0.73     1.02     7.33     0  03:05        1.01
  YS02006558           JUNCTION     0.78     1.07     7.34     0  03:01        1.06
  YS02001783           JUNCTION     0.36     1.00     7.14     0  03:03        0.94
  YS02001784           JUNCTION     0.39     1.18     7.25     0  02:38        0.94
  YS02001786           JUNCTION     0.35     0.96     6.99     0  02:55        0.95
  YS02001788           JUNCTION     0.30     1.10     7.08     0  02:38        0.86
  YS02001790           JUNCTION     0.39     1.96     7.60     0  02:36        1.11
  YS02001791           JUNCTION     0.36     1.72     7.19     0  02:36        1.20
  YS02001793           JUNCTION     0.49     2.71     7.54     0  02:34        1.78
  WS02004139           JUNCTION     0.57     0.71     5.62     0  04:00        0.71
  WSC                  OUTFALL      0.29     0.37     1.04     0  03:14        0.37
  3                    OUTFALL      0.08     0.20     6.20     0  03:10        0.20
  4                    OUTFALL      0.02     0.10     7.10     0  04:10        0.10
  5                    OUTFALL      0.00     0.00     5.00     0  00:00        0.00
  JK-storage           STORAGE      1.84     5.80     6.60     0  02:37        5.80
  CC-storage           STORAGE      1.02     1.38     8.38     0  04:47        1.38
  XR-storage           STORAGE      7.48     7.72     5.72     0  02:13        7.72
  
  
  *******************
  Node Inflow Summary
  *******************
  
  -------------------------------------------------------------------------------------------------
                                  Maximum  Maximum                  Lateral       Total        Flow
                                  Lateral    Total  Time of Max      Inflow      Inflow     Balance
                                   Inflow   Inflow   Occurrence      Volume      Volume       Error
  Node                 Type           LPS      LPS  days hr:min    10^6 ltr    10^6 ltr     Percent
  -------------------------------------------------------------------------------------------------
  WS02001211           JUNCTION      7.35   387.65     0  00:40       0.207        5.93       0.664
  WS02001212           JUNCTION      0.00   387.61     0  00:40           0        5.89       0.330
  WS02001213           JUNCTION      0.00   387.60     0  00:40           0        5.87       0.436
  WS02003069           JUNCTION      0.32   823.53     0  03:12     0.00902        13.8       0.242
  WS02003072           JUNCTION      0.00   823.51     0  03:13           0        13.8       0.288
  WS02003073           JUNCTION      1.82   825.36     0  03:13      0.0514        13.8       0.333
  WS02003060           JUNCTION     16.53   823.22     0  03:12       0.466        13.9       0.226
  WS02003066           JUNCTION      0.00   518.79     0  03:10           0        7.61       0.064
  WS02003059           JUNCTION      0.00   387.61     0  00:40           0        5.85       0.724
  WS02003067           JUNCTION      0.00   518.72     0  03:10           0        7.62       0.132
  WS02004401           JUNCTION      0.00   524.54     0  03:04           0        7.87       0.286
  WS02004402           JUNCTION      0.00   523.16     0  03:07           0        7.84       0.269
  WS02004403           JUNCTION      0.00   523.07     0  03:07           0        7.82       0.244
  WS02004404           JUNCTION      0.16   522.92     0  03:07     0.00457        7.81       0.182
  WS02004406           JUNCTION      0.00   522.97     0  03:07           0        7.77       0.446
  WS02004409           JUNCTION      0.00   522.83     0  03:08           0        7.73       0.235
  WS02004410           JUNCTION      0.00   521.21     0  03:08           0        7.71       0.263
  WS02004411           JUNCTION      0.00   520.20     0  03:09           0        7.69       0.269
  WS02004412           JUNCTION      0.00   519.38     0  03:09           0        7.67       0.288
  WS02004413           JUNCTION      0.00   518.90     0  03:09           0        7.65       0.422
  WS02004405           JUNCTION      0.04   522.97     0  03:07     0.00107        7.79       0.273
  WS02006109           JUNCTION      1.23   528.06     0  03:04      0.0347        7.95       0.237
  WS02006110           JUNCTION      0.00   528.02     0  03:04           0        7.93       0.266
  WS02006111           JUNCTION      0.00   546.15     0  03:03           0         7.9       0.058
  WS02006112           JUNCTION      7.75   536.92     0  03:03      0.0414        7.94       0.384
  WS02006113           JUNCTION      0.00   528.75     0  03:03           0        7.91       0.126
  WS02006115           JUNCTION      0.00   547.22     0  03:04           0        7.91       0.280
  WS02006116           JUNCTION      0.00   529.44     0  03:04           0        7.89       0.245
  WS02006230           JUNCTION     10.28   401.17     0  04:10        0.29        6.64       0.171
  WS02006231           JUNCTION      0.00   391.00     0  04:10           0        6.36       0.207
  WS02006232           JUNCTION      0.00   391.00     0  04:10           0        6.38       0.249
  WS02006234           JUNCTION      0.00   391.28     0  04:31           0        6.39       0.131
  WS02006235           JUNCTION      0.00   391.60     0  04:30           0        6.44       0.165
  WS02006238           JUNCTION      0.00   330.70     0  03:40           0        4.44       0.169
  WS02006240           JUNCTION      0.00   333.06     0  03:40           0        4.43       0.269
  WS02006242           JUNCTION      0.00   334.84     0  03:41           0        4.43       0.330
  WS02006243           JUNCTION      0.00   338.63     0  03:00           0        4.42      -0.032
  WS02006245           JUNCTION      0.00   344.59     0  07:11           0        4.43       0.241
  WS02006247           JUNCTION      0.00   349.91     0  07:11           0        4.43       0.164
  WS02006248           JUNCTION      0.00   354.30     0  07:10           0        4.44       0.067
  WS02006249           JUNCTION      0.00   428.60     0  03:00           0        4.69       0.266
  WS02006239           JUNCTION      0.00   331.99     0  03:40           0        4.43       0.254
  WS02006251           JUNCTION      0.08   430.83     0  03:00     0.00217        4.72       0.181
  WS02006252           JUNCTION      0.00   400.00     0  04:00           0        4.47       0.010
  WS02006253           JUNCTION      1.03    41.73     0  02:26     0.00535       0.255       1.522
  WS02006256           JUNCTION      0.00   600.00     0  04:10           0        4.98       0.050
  WS02004138           JUNCTION      0.00   380.00     0  00:30           0        5.76       0.066
  WS02004407           JUNCTION      0.00   522.89     0  03:07           0        7.74       0.103
  WS02006228           JUNCTION      0.00   526.83     0  03:04           0        7.93       0.178
  WS02006229           JUNCTION      0.00   526.54     0  03:03           0        7.94       0.154
  WS02006280           JUNCTION      0.00   204.81     0  02:27           0        1.31       0.005
  WS02006284           JUNCTION      0.10   204.81     0  02:27      0.0027        1.31       0.088
  WS02006287           JUNCTION      0.00   204.70     0  02:27           0        1.31       0.053
  WSF200               JUNCTION      0.00   518.82     0  03:10           0         7.6       0.062
  HS02004901           JUNCTION      9.37     9.37     0  02:23      0.0498      0.0501       3.646
  HS02004881           JUNCTION      4.04    40.76     0  02:26      0.0217        0.23       0.140
  HS02004876           JUNCTION      7.43    36.76     0  02:26      0.0417       0.209       0.259
  HS02004870           JUNCTION      7.54    29.42     0  02:26      0.0411       0.167       0.066
  HS02004862           JUNCTION      7.28    22.06     0  02:26      0.0469       0.126       0.137
  HS02004856           JUNCTION      5.65    14.84     0  02:26       0.031      0.0805       1.826
  HS02004852           JUNCTION      0.00     9.33     0  02:26           0      0.0496       0.109
  HS02004848           JUNCTION     15.91    15.91     0  02:26      0.0988      0.0988       0.047
  HS02004842           JUNCTION      0.00     6.79     0  02:52           0      0.0622      26.419
  HS02004837           JUNCTION     19.22    25.66     0  02:25       0.251         0.3       0.270
  HS02004830           JUNCTION      0.15    25.80     0  02:26     0.00423        0.29       0.426
  HS02004824           JUNCTION     19.28    44.91     0  02:27       0.129       0.418       0.129
  HS02004817           JUNCTION      0.60    45.51     0  02:27      0.0169       0.435       3.987
  HS02004807           JUNCTION     13.93    58.94     0  02:27      0.0757       0.494       0.884
  HS02004802           JUNCTION      0.00    59.00     0  02:28           0       0.491       0.814
  HS02004799           JUNCTION     11.15   123.20     0  02:25      0.0613       0.713       0.360
  HS02004792           JUNCTION     47.36   112.13     0  02:24       0.263       0.652       0.064
  HS02004788           JUNCTION     17.07    65.26     0  02:25       0.132        0.39       0.101
  HS02004785           JUNCTION      0.15    48.39     0  02:25     0.00423       0.259       0.188
  HS02004777           JUNCTION      0.03    48.40     0  02:24    0.000846        0.26       2.037
  HS02004770           JUNCTION     39.46    48.64     0  02:23       0.213       0.261       1.203
  HS02004480           JUNCTION      0.00   146.07     0  02:25           0       0.837       0.127
  HS02004479           JUNCTION      0.00    23.09     0  02:27           0       0.137       0.537
  HS02004478           JUNCTION      0.00   204.70     0  02:26           0        1.31       0.032
  YS02001745           JUNCTION    149.28   304.83     0  03:17        1.44        1.46       0.675
  YS02001748           JUNCTION      0.04   427.66     0  03:18     0.00127        1.46       1.598
  YS02001751           JUNCTION      0.01   344.41     0  02:57     0.00031        1.41       1.646
  YS02001754           JUNCTION      0.26   218.27     0  03:02     0.00733        1.39       1.796
  YS02001762           JUNCTION      0.00   206.64     0  02:59           0        1.56       1.366
  YS02001765           JUNCTION      0.00   203.59     0  02:59           0        1.56       1.588
  YS02001767           JUNCTION      0.54   201.07     0  02:59      0.0151        1.58       2.320
  YS02001770           JUNCTION    187.24   193.32     0  02:59        1.65        1.66       1.952
  YS02001774           JUNCTION      0.00    32.90     0  01:57           0      0.0675      59.688
  YS02001779           JUNCTION      0.01    25.39     0  02:55    0.000141      0.0339      79.769
  YS02001882           JUNCTION      0.00    10.94     0  02:55           0      0.0113      20.913
  YS02001884           JUNCTION      0.00    17.55     0  03:03           0      0.0379      16.827
  YS02001759           JUNCTION    180.39   387.95     0  02:59        1.53        3.05       0.756
  YS02001887           JUNCTION    226.70   233.13     0  03:01        1.79        1.81       0.433
  YS02001890           JUNCTION      0.00   231.50     0  03:00           0        1.77       0.481
  YS02001898           JUNCTION      0.00   237.15     0  03:04           0        1.76       0.153
  YS02001901           JUNCTION      0.00   237.66     0  03:04           0        1.76       0.353
  YS02001904           JUNCTION      0.00   234.34     0  03:03           0        1.75       0.326
  YS02001907           JUNCTION      0.00   455.34     0  03:05           0        3.82       0.600
  YS02001910           JUNCTION      0.00   221.53     0  03:04           0        2.08       0.528
  YS02001915           JUNCTION    132.40   211.43     0  03:04        1.22        2.08       0.254
  YS02001918           JUNCTION      0.00    77.15     0  03:04           0       0.866       0.176
  YS02001619           JUNCTION    129.20   129.20     0  03:01        1.21        1.21       0.989
  YS02001629           JUNCTION      0.00   204.76     0  02:49           0        1.12       2.569
  YS02001641           JUNCTION      0.00   310.20     0  03:04           0        2.44       0.868
  YS02001644           JUNCTION    142.03   472.91     0  04:52        1.38        4.15       0.632
  YS02001652           JUNCTION      0.00   275.02     0  03:02           0        1.27       1.894
  YS02001655           JUNCTION      0.15   373.39     0  02:46     0.00434        1.29       1.780
  YS02001920           JUNCTION      2.87    67.64     0  03:02      0.0809       0.868       0.287
  YS02001923           JUNCTION      0.04    64.78     0  03:02     0.00106       0.788       0.052
  YS02001926           JUNCTION      0.05    64.97     0  03:01     0.00147       0.789       0.356
  YS02001929           JUNCTION     64.98    64.98     0  03:01       0.788       0.788       0.051
  YS02001658           JUNCTION      0.00   581.27     0  03:02           0        1.39       1.399
  YS02001661           JUNCTION      0.00   474.30     0  03:48           0        2.02       0.408
  YS02001664           JUNCTION    164.01   394.10     0  03:47        1.32        1.95       0.242
  YS02001622           JUNCTION      0.00   158.42     0  02:54           0         1.2       2.684
  YS02001633           JUNCTION    144.48   309.90     0  03:00        1.43         2.5       1.302
  YS02001649           JUNCTION      0.00   652.85     0  03:03           0        4.28       0.865
  YS02001757           JUNCTION      0.00  1111.12     0  03:02           0        8.32       1.120
  YS02001895           JUNCTION      0.00   234.04     0  03:04           0        1.76       0.240
  YS02001625           JUNCTION      0.00   204.96     0  02:49           0        1.16       3.446
  YS02163301           JUNCTION      0.00   170.63     0  03:06           0         1.1       2.222
  YS02163601           JUNCTION      0.11   309.89     0  03:00      0.0031        2.47       1.232
  YS02164001           JUNCTION      0.00   310.04     0  03:00           0        2.45       0.822
  YS02001647           JUNCTION      0.00   452.81     0  03:00           0        3.15       0.904
  YSB1154              JUNCTION     13.22    13.22     0  02:24      0.0743      0.0752       1.964
  YSB6556              JUNCTION      0.00    13.14     0  02:25           0      0.0759       1.671
  YSB1174              JUNCTION     10.23    10.23     0  02:22       0.054      0.0546       2.413
  YSB1171              JUNCTION      0.00    23.08     0  02:25           0       0.136       4.884
  YS02006553           JUNCTION      0.00   447.85     0  03:04           0        3.81       0.385
  YS02006561           JUNCTION      0.00   690.59     0  03:05           0        5.39       0.004
  YS02006556           JUNCTION      0.00   451.56     0  03:04           0        3.81       0.282
  YS02006558           JUNCTION    197.15   647.32     0  02:59        1.63        5.42       0.097
  YS02001783           JUNCTION      0.00   629.77     0  03:03           0        5.39       0.031
  YS02001784           JUNCTION      1.06   625.48     0  03:04      0.0299        5.42       0.056
  YS02001786           JUNCTION      0.06   628.75     0  03:04     0.00159        5.42       0.051
  YS02001788           JUNCTION      0.07   629.72     0  03:00       0.002        5.42       0.031
  YS02001790           JUNCTION      0.15   623.15     0  03:00     0.00437        5.42       0.035
  YS02001791           JUNCTION      0.00   623.05     0  03:00           0        5.42       0.022
  YS02001793           JUNCTION      0.00   623.25     0  03:00           0        5.42      -0.025
  WS02004139           JUNCTION      0.32   380.34     0  00:30     0.00905        5.76       0.647
  WSC                  OUTFALL       0.00   825.41     0  03:14           0        13.8       0.000
  3                    OUTFALL       0.00   507.31     0  03:10           0        2.95       0.000
  4                    OUTFALL       0.00   105.71     0  04:10           0       0.241       0.000
  5                    OUTFALL       0.00     0.00     0  00:00           0           0       0.000 ltr
  JK-storage           STORAGE       0.00   779.77     0  02:34           0        5.57     -11.798
  CC-storage           STORAGE       0.00  1111.72     0  03:02           0        7.96       0.772
  XR-storage           STORAGE     442.93   442.93     0  03:01        8.07        8.67      -0.001
  
  
  **********************
  Node Surcharge Summary
  **********************
  
  Surcharging occurs when water rises above the top of the highest conduit.
  ---------------------------------------------------------------------
                                               Max. Height   Min. Depth
                                   Hours       Above Crown    Below Rim
  Node                 Type      Surcharged         Meters       Meters
  ---------------------------------------------------------------------
  WS02006109           JUNCTION        2.03          0.143        1.677
  WS02006110           JUNCTION        0.05          0.008        1.842
  WS02006112           JUNCTION        0.19          0.062        1.618
  WS02006232           JUNCTION        1.62          0.108        1.372
  WS02006234           JUNCTION        0.14          0.028        1.212
  WS02006235           JUNCTION        0.71          0.070        1.220
  WS02006238           JUNCTION        1.10          0.087        1.343
  WS02006240           JUNCTION        0.09          0.019        1.371
  WS02006242           JUNCTION        0.63          0.073        0.747
  WS02006239           JUNCTION        0.36          0.041        1.249
  WS02006252           JUNCTION        1.82          0.193        0.907
  WS02006228           JUNCTION        1.85          0.168        2.032
  YS02001748           JUNCTION        4.39          0.329        0.861
  YS02001751           JUNCTION        4.83          1.200        0.000
  YS02001754           JUNCTION        5.23          1.063        0.087
  YS02001762           JUNCTION        5.51          1.016        0.134
  YS02001765           JUNCTION        5.47          0.963        0.137
  YS02001767           JUNCTION        5.44          0.918        0.112
  YS02001770           JUNCTION        5.42          0.871        0.049
  YS02001774           JUNCTION        5.49          0.969        0.081
  YS02001779           JUNCTION        5.18          0.680        0.000
  YS02001759           JUNCTION        5.54          1.050        0.160
  YS02001907           JUNCTION        0.30          0.051        0.899
  YS02001619           JUNCTION        4.77          0.610        0.000
  YS02001629           JUNCTION        4.81          0.470        0.000
  YS02001641           JUNCTION        5.48          0.948        0.152
  YS02001644           JUNCTION        5.48          0.920        0.000
  YS02001652           JUNCTION        5.30          1.112        0.018
  YS02001655           JUNCTION        4.84          1.200        0.000
  YS02001658           JUNCTION        4.42          1.300        0.000
  YS02001661           JUNCTION        0.07          0.799        0.591
  YS02001622           JUNCTION        4.88          0.620        0.000
  YS02001633           JUNCTION        5.46          0.934        0.126
  YS02001649           JUNCTION        5.51          1.050        0.000
  YS02001757           JUNCTION        5.64          1.155        0.055
  YS02001625           JUNCTION        5.37          0.780        0.000
  YS02163301           JUNCTION        5.43          0.902        0.128
  YS02163601           JUNCTION        5.51          1.009        0.071
  YS02164001           JUNCTION        5.47          0.944        0.156
  YS02001647           JUNCTION        5.34          0.798        0.102
  YS02006553           JUNCTION        0.39          0.063        1.127
  YS02001783           JUNCTION        0.25          0.203        1.397
  YS02001784           JUNCTION        0.41          0.382        1.108
  YS02001786           JUNCTION        0.28          0.158        1.272
  YS02001788           JUNCTION        0.16          0.298        1.182
  YS02001790           JUNCTION        1.22          1.157        0.000
  YS02001791           JUNCTION        1.25          0.921        0.999
  YS02001793           JUNCTION        1.40          1.706        0.894
  
  
  *********************
  Node Flooding Summary
  *********************
  
  Flooding refers to all water that overflows a node, whether it ponds or not.
  --------------------------------------------------------------------------
                                                             Total   Maximum
                                 Maximum   Time of Max       Flood    Ponded
                        Hours       Rate    Occurrence      Volume     Depth
  Node                 Flooded       LPS   days hr:min    10^6 ltr    Meters
  --------------------------------------------------------------------------
  YS02001751              0.01    162.35      0  02:55       0.000     0.000
  YS02001779              0.91     22.22      0  04:52       0.012     0.000
  YS02001619              0.01      8.16      0  03:11       0.000     0.000
  YS02001629              0.01     28.89      0  03:18       0.000     0.000
  YS02001644              2.67    472.87      0  04:52       1.315     0.000
  YS02001655              0.01    211.50      0  02:53       0.001     0.000
  YS02001658              0.01    215.98      0  03:10       0.001     0.000
  YS02001622              0.01     29.70      0  03:11       0.000     0.000
  YS02001649              0.01     21.92      0  03:50       0.000     0.000
  YS02001625              0.10     16.82      0  03:38       0.001     0.000
  YS02001790              0.01    233.93      0  02:36       0.000     0.000
  JK-storage              1.13    619.84      0  02:59       1.338     0.000
  XR-storage              4.65    290.52      0  05:10       2.014     0.000
  
  
  **********************
  Storage Volume Summary
  **********************
  
  --------------------------------------------------------------------------------------------------
                         Average     Avg  Evap Exfil       Maximum     Max    Time of Max    Maximum
                          Volume    Pcnt  Pcnt  Pcnt        Volume    Pcnt     Occurrence    Outflow
  Storage Unit           1000 m3    Full  Loss  Loss       1000 m3    Full    days hr:min        LPS
  --------------------------------------------------------------------------------------------------
  JK-storage               0.093      32     0     0         0.291     100       0  02:37     600.00
  CC-storage               2.829      18     0     0         3.833      24       0  04:47     400.00
  XR-storage               0.897      97     0     0         0.926     100       0  02:13     380.00
  
  
  ***********************
  Outfall Loading Summary
  ***********************
  
  -----------------------------------------------------------
                         Flow       Avg       Max       Total
                         Freq      Flow      Flow      Volume
  Outfall Node           Pcnt       LPS       LPS    10^6 ltr
  -----------------------------------------------------------
  WSC                  100.00    556.97    825.41      13.781
  3                     76.42    183.27    507.31       2.947
  4                     29.32     38.62    105.71       0.241
  5                      0.00      0.00      0.00       0.000
  -----------------------------------------------------------
  System                51.43    778.86   1321.46      16.969
  
  
  ********************
  Link Flow Summary
  ********************
  
  -----------------------------------------------------------------------------
                                 Maximum  Time of Max   Maximum    Max/    Max/
                                  |Flow|   Occurrence   |Veloc|    Full    Full
  Link                 Type          LPS  days hr:min     m/sec    Flow   Depth
  -----------------------------------------------------------------------------
  WS02003066WSF200     CONDUIT    518.82     0  03:10      2.70    0.09    0.23
  WS02006287WS02006284 CONDUIT    204.71     0  02:27      1.62    0.09    0.22
  WS02006284WS02006280 CONDUIT    204.81     0  02:27      1.86    0.09    0.20
  WS02006280WS02006229 CONDUIT    204.81     0  02:27      2.99    0.04    0.14
  WS02006229WS02006228 CONDUIT    526.83     0  03:04      1.05    1.74    1.00
  WS02006256WS02006235 CONDUIT    149.96     0  00:15      2.14    1.59    1.00
  WS02006253WS02006251 CONDUIT     41.25     0  03:01      0.49    0.12    0.91
  WS02006252WS02006251 CONDUIT    400.33     0  04:00      3.19    1.47    1.00
  WS02006251WS02006249 CONDUIT    428.60     0  03:00      1.21    1.24    0.88
  WS02006249WS02006248 CONDUIT    354.30     0  07:10      1.17    1.94    0.84
  WS02006248WS02006247 CONDUIT    349.91     0  07:11      1.14    0.76    0.88
  WS02006247WS02006245 CONDUIT    344.59     0  07:11      1.11    2.73    0.92
  WS02006245WS02006243 CONDUIT    338.63     0  03:00      1.14    1.00    0.94
  WS02006243WS02006242 CONDUIT    334.84     0  03:41      1.00    0.72    0.99
  WS02006242WS02006240 CONDUIT    333.06     0  03:40      0.90    1.32    1.00
  WS02006240WS02006239 CONDUIT    331.99     0  03:40      0.93    1.04    1.00
  WS02006239WS02006238 CONDUIT    330.70     0  03:40      0.89    1.06    1.00
  WS02006238WS02006235 CONDUIT    329.52     0  03:40      0.88    0.74    1.00
  WS02006235WS02006234 CONDUIT    391.28     0  04:31      1.03    4.13    1.00
  WS02006234WS02006232 CONDUIT    391.00     0  04:10      1.02    0.79    1.00
  WS02006232WS02006231 CONDUIT    391.00     0  04:10      1.06    0.82    0.98
  WS02006231WS02006230 CONDUIT    390.89     0  04:10      1.36    5.93    0.93
  WS02006230WS02006229 CONDUIT    401.13     0  04:10      1.04    8.93    1.00
  WS02006228WS02006109 CONDUIT    526.83     0  03:04      1.05    2.30    1.00
  WS02006116WS02004401 CONDUIT    524.54     0  03:04      0.80    0.72    0.83
  WS02006115WS02006116 CONDUIT    529.44     0  03:04      0.92    0.68    0.75
  WS02006113WS02006111 CONDUIT    546.15     0  03:03      2.44    0.65    0.46
  WS02006112WS02006115 CONDUIT    547.22     0  03:04      0.76    0.32    0.86
  WS02006111WS02006112 CONDUIT    532.23     0  03:04      1.48    0.25    0.67
  WS02006110WS02006113 CONDUIT    528.75     0  03:03      1.26    0.48    0.78
  WS02006109WS02006110 CONDUIT    528.02     0  03:04      1.05    1.02    1.00
  WS02004411WS02004412 CONDUIT    519.38     0  03:09      0.91    0.74    0.68
  WS02004401WS02004402 CONDUIT    523.16     0  03:07      0.83    0.63    0.85
  WS02004413WS02003067 CONDUIT    518.72     0  03:10      1.09    0.22    0.58
  WS02004412WS02004413 CONDUIT    518.90     0  03:09      0.80    0.35    0.77
  WS02004410WS02004411 CONDUIT    520.20     0  03:09      0.93    0.71    0.67
  WS02004409WS02004410 CONDUIT    521.21     0  03:08      0.95    0.67    0.66
  WS02004407WS02004409 CONDUIT    522.83     0  03:08      1.44    0.19    0.47
  WS02004406WS02004407 CONDUIT    522.89     0  03:07      1.02    0.23    0.62
  WS02004405WS02004406 CONDUIT    522.97     0  03:07      0.77    1.03    0.95
  WS02004404WS02004405 CONDUIT    522.93     0  03:07      0.96    5.12    0.95
  WS02004403WS02004404 CONDUIT    522.76     0  03:07      0.85    0.38    0.92
  WS02004402WS02004403 CONDUIT    523.07     0  03:07      0.85    0.75    0.87
  WS02004139WS02001211 CONDUIT    380.30     0  00:40      0.58    0.48    0.58
  WS02004138WS02004139 CONDUIT    380.02     0  00:30      2.39    0.08    0.43
  WS02003067WS02003066 CONDUIT    518.79     0  03:10      1.18    0.17    0.41
  WS02001213WS02003059 CONDUIT    387.61     0  00:40      0.68    0.64    0.74
  WS02001212WS02001213 CONDUIT    387.60     0  00:40      1.32    0.60    0.44
  WS02001211WS02001212 CONDUIT    387.61     0  00:40      0.78    0.30    0.62
  WS02003072WS02003073 CONDUIT    823.53     0  03:13      1.65    1.78    0.45
  WS02003069WS02003072 CONDUIT    823.51     0  03:13      1.56    0.40    0.48
  WS02003060WS02003069 CONDUIT    823.21     0  03:12      1.81    0.32    0.42
  WS02003059WS02003060 CONDUIT    387.51     0  00:41      0.95    0.25    0.62
  HS02004901HS02004770 CONDUIT      9.22     0  02:24      0.05    0.03    0.31
  HS02004876HS02004881 CONDUIT     36.81     0  02:26      0.59    0.39    0.09
  HS02004870HS02004876 CONDUIT     29.40     0  02:26      0.41    0.02    0.10
  HS02004842HS02004848 CONDUIT      6.79     0  02:52      0.04    0.00    0.28
  HS02004837HS02004842 CONDUIT      7.01     0  03:02      0.42    0.00    0.29
  HS02004830HS02004837 CONDUIT     25.65     0  02:26      0.46    0.03    0.08
  HS02004824HS02004830 CONDUIT     25.79     0  02:27      0.49    0.03    0.08
  HS02004817HS02004824 CONDUIT     44.91     0  02:27      0.17    0.02    0.41
  HS02004770HS02004777 CONDUIT     48.37     0  02:24      0.21    0.09    0.33
  HS02004799HS02004480 CONDUIT    123.11     0  02:25      0.58    0.16    0.31
  HS02004792HS02004799 CONDUIT    112.11     0  02:25      0.66    0.07    0.24
  HS02004788HS02004792 CONDUIT     65.23     0  02:26      0.81    0.04    0.11
  HS02004785HS02004788 CONDUIT     48.34     0  02:26      0.49    0.36    0.14
  HS02004777HS02004785 CONDUIT     48.24     0  02:25      0.26    0.06    0.26
  HS02004480HS02004478 CONDUIT    146.06     0  02:26      0.94    0.62    0.22
  HS02004479HS02004480 CONDUIT     23.22     0  02:27      0.27    0.02    0.30
  HS02004862HS02004870 CONDUIT     22.03     0  02:27      0.49    0.02    0.06
  HS02004848HS02004852 CONDUIT      9.33     0  02:26      0.33    0.01    0.04
  HS02004856HS02004862 CONDUIT     14.82     0  02:26      0.35    0.01    0.06
  HS02004852HS02004856 CONDUIT      9.31     0  02:27      0.14    0.01    0.10
  HS02004802HS02004478 CONDUIT     59.19     0  02:29      0.33    0.05    0.26
  HS02004478WS02006287 CONDUIT    204.70     0  02:27      1.31    0.06    0.17
  HS02004817HS02004807 CONDUIT     45.68     0  02:29      0.13    0.03    0.52
  HS02004807HS02004802 CONDUIT     59.00     0  02:28      0.28    0.11    0.31
  YS02001759YS02001757 CONDUIT    389.94     0  02:59      0.50    0.28    1.00
  YS02001762YS02001759 CONDUIT    209.75     0  02:59      0.27    0.24    1.00
  YS02001765YS02001762 CONDUIT    206.64     0  02:59      0.28    0.19    1.00
  YS02001770YS02001767 CONDUIT    200.53     0  02:59      0.26    0.79    1.00
  YS02001774YS02001770 CONDUIT     32.90     0  01:57      0.22    0.02    1.00
  YS02001779YS02001774 CONDUIT     25.38     0  02:55      0.05    0.01    1.00
  YS02001649YS02001757 CONDUIT    652.48     0  03:03      0.83    0.40    1.00
  YS02001767YS02001765 CONDUIT    203.59     0  02:59      0.30    0.26    1.00
  YS02006561YS02001783 CONDUIT    629.77     0  03:03      1.98    0.33    0.71
  YS02001783YS02001784 CONDUIT    624.42     0  03:04      1.41    0.86    1.00
  YS02001784YS02001785 CONDUIT    628.69     0  03:04      1.51    1.46    1.00
  YS02001788YS02001790 CONDUIT    622.99     0  03:00      2.07    0.46    1.00
  YS02001790YS02001791 CONDUIT    623.05     0  03:00      2.45    0.68    1.00
  YS02001791YS02001793 CONDUIT    623.25     0  03:00      4.90    0.27    1.00
  YS02001910YS02001907 CONDUIT    227.65     0  03:08      0.49    0.13    0.91
  YS02001786YS02001788 CONDUIT    629.65     0  03:00      1.99    1.21    1.00
  YS02001915YS02001910 CONDUIT    221.53     0  03:04      0.55    0.11    0.72
  YS02001918YS02001915 CONDUIT     83.64     0  03:04      0.44    0.05    0.44
  YS02001923YS02001920 CONDUIT     64.77     0  03:02      0.57    0.03    0.23
  YS02001926YS02001923 CONDUIT     64.74     0  03:02      0.66    0.09    0.18
  YS02001929YS02001926 CONDUIT     64.92     0  03:01      0.71    0.03    0.17
  YS02001920YS02001918 CONDUIT     77.15     0  03:04      0.57    0.07    0.30
  YS02001629YS02163301 CONDUIT    170.63     0  03:06      0.22    0.21    1.00
  YS02001619YS02001622 CONDUIT    158.42     0  02:54      0.57    0.23    1.00
  YS02001622YS02001625 CONDUIT    204.96     0  02:49      0.31    0.11    1.00
  YS02001625YS02001629 CONDUIT    204.76     0  02:49      0.27    0.10    1.00
  YS02163301YS02001633 CONDUIT    170.68     0  03:06      0.22    0.16    1.00
  YS02163601YS02164001 CONDUIT    310.04     0  03:00      0.39    0.27    1.00
  YS02164001YS02001641 CONDUIT    310.20     0  03:04      0.39    0.42    1.00
  YS02001641YS02001644 CONDUIT    310.31     0  03:00      0.40    1.00    1.00
  YS02001647YS02001649 CONDUIT    453.86     0  03:00      0.58    0.24    1.00
  YS02006553YS02006556 CONDUIT    451.56     0  03:04      0.58    0.39    0.99
  YS02006556YS02006558 CONDUIT    458.20     0  03:04      0.58    0.36    1.00
  YSB6556YSB1171       CONDUIT     13.19     0  02:28      0.06    0.01    0.57
  YS02001907YS02006553 CONDUIT    447.85     0  03:04      0.50    0.53    1.00
  YS02006558YS02006561 CONDUIT    690.59     0  03:05      3.21    1.53    0.73
  YS02001633YS02163601 CONDUIT    309.78     0  03:00      0.39    0.33    1.00
  YS02001644YS02001647 CONDUIT    452.81     0  03:00      0.58    0.27    1.00
  YS02001745YS02001748 CONDUIT    427.61     0  03:18      1.42    0.16    0.93
  YS02001748YS02001751 CONDUIT    344.40     0  02:57      1.00    0.17    1.00
  YS02001751YS02001754 CONDUIT    218.01     0  03:02      0.86    0.11    1.00
  YS02001754YS02001757 CONDUIT    217.80     0  03:02      0.33    0.09    1.00
  YS02001882YS02001884 CONDUIT     11.95     0  03:05      0.09    0.01    0.66
  YS02001884YS02001887 CONDUIT     18.44     0  03:07      0.05    0.02    0.75
  YS02001890YS02001895 CONDUIT    234.04     0  03:04      0.39    0.11    0.72
  YS02001895YS02001898 CONDUIT    237.15     0  03:04      0.51    0.41    0.58
  YS02001898YS02001901 CONDUIT    237.66     0  03:04      0.44    0.15    0.66
  YS02001901YS02001904 CONDUIT    234.34     0  03:03      0.40    0.36    0.71
  YS02001904YS02001907 CONDUIT    240.89     0  03:06      0.34    0.08    0.85
  YS02001887YS02001890 CONDUIT    231.50     0  03:00      0.35    0.40    0.80
  YS02001652YS02001649 CONDUIT    274.93     0  03:03      0.56    0.14    1.00
  YS02001655YS02001652 CONDUIT    275.02     0  03:02      0.91    0.13    1.00
  YS02001658YS02001655 CONDUIT    373.24     0  02:46      1.15    0.16    1.00
  YS02001661YS02001658 CONDUIT    581.27     0  03:02      1.49    0.23    1.00
  YS02001664YS02001661 CONDUIT    474.30     0  03:48      1.37    0.15    0.71
  YSB1154YSB6556       CONDUIT     13.14     0  02:25      0.16    0.02    0.46
  YSB1174YSB1171       CONDUIT     10.08     0  02:23      0.04    0.02    0.57
  YSB1171HS02004479    CONDUIT     23.09     0  02:27      0.54    0.02    0.44
  HS02004881HS02006253 CONDUIT     40.76     0  02:26      1.69    0.01    0.24
  YS02001793JiankangQianchi CONDUIT    779.77     0  02:34     12.44    0.06    1.00
  YS02001757CaochengTiaoxuchi CONDUIT   1111.72     0  03:02      1.57    0.49    1.00
  WSF200WS02003060     CONDUIT    518.95     0  03:10      1.84    0.12    0.32
  1                    CONDUIT    825.41     0  03:14      3.16    0.29    0.37
  2                    CONDUIT    105.71     0  04:10      4.92    0.25    0.34
  3                    CONDUIT    507.31     0  03:10      9.82    0.81    0.69
  4                    CONDUIT      0.00     0  00:00      0.00    0.00    0.00
  CC-Pump-1            PUMP       200.00     0  03:00              1.00
  CC-Pump-2            PUMP       200.00     0  02:50              1.00
  JK-Pump-1            PUMP       300.00     0  06:10              1.00
  JK-Pump-2            PUMP       300.00     0  03:10              1.00
  XR-Pump-1            PUMP        95.00     0  00:00              1.00
  XR-Pump-2            PUMP        95.00     0  00:20              1.00
  XR-Pump-3            PUMP        95.00     0  00:20              1.00
  XR-Pump-4            PUMP        95.00     0  00:30              1.00
  
  
  ***************************
  Flow Classification Summary
  ***************************
  
  -------------------------------------------------------------------------------------
                      Adjusted    ---------- Fraction of Time in Flow Class ---------- 
                       /Actual         Up    Down  Sub   Sup   Up    Down  Norm  Inlet 
  Conduit               Length    Dry  Dry   Dry   Crit  Crit  Crit  Crit  Ltd   Ctrl  
  -------------------------------------------------------------------------------------
  WS02003066WSF200        1.00   0.03  0.01  0.00  0.00  0.95  0.00  0.00  0.78  0.00
  WS02006287WS02006284    1.00   0.04  0.01  0.00  0.63  0.33  0.00  0.00  0.77  0.00
  WS02006284WS02006280    1.00   0.04  0.00  0.00  0.00  0.00  0.00  0.96  0.00  0.00
  WS02006280WS02006229    1.00   0.04  0.00  0.00  0.00  0.00  0.00  0.96  0.00  0.00
  WS02006229WS02006228    1.00   0.00  0.00  0.00  1.00  0.00  0.00  0.00  0.01  0.00
  WS02006256WS02006235    1.00   0.00  0.00  0.00  1.00  0.00  0.00  0.00  0.00  0.00
  WS02006253WS02006251    1.00   0.02  0.01  0.00  0.96  0.00  0.00  0.00  0.00  0.00
  WS02006252WS02006251    1.00   0.07  0.00  0.00  0.00  0.00  0.93  0.00  0.00  0.00
  WS02006251WS02006249    1.00   0.00  0.00  0.00  1.00  0.00  0.00  0.00  0.27  0.00
  WS02006249WS02006248    1.00   0.00  0.00  0.00  0.86  0.00  0.14  0.00  0.00  0.00
  WS02006248WS02006247    1.00   0.00  0.00  0.00  0.98  0.00  0.00  0.02  0.17  0.00
  WS02006247WS02006245    1.00   0.00  0.00  0.00  0.98  0.00  0.00  0.02  0.00  0.00
  WS02006245WS02006243    1.00   0.01  0.00  0.00  0.96  0.00  0.00  0.03  0.02  0.00
  WS02006243WS02006242    1.00   0.01  0.00  0.00  0.99  0.00  0.00  0.00  0.17  0.00
  WS02006242WS02006240    1.00   0.01  0.00  0.00  0.99  0.00  0.00  0.00  0.00  0.00
  WS02006240WS02006239    1.00   0.00  0.00  0.00  0.97  0.00  0.00  0.03  0.01  0.00
  WS02006239WS02006238    1.00   0.00  0.00  0.00  1.00  0.00  0.00  0.00  0.00  0.00
  WS02006238WS02006235    1.00   0.00  0.00  0.00  1.00  0.00  0.00  0.00  0.00  0.00
  WS02006235WS02006234    1.00   0.00  0.00  0.00  0.97  0.00  0.03  0.00  0.00  0.00
  WS02006234WS02006232    1.00   0.00  0.00  0.00  1.00  0.00  0.00  0.00  0.01  0.00
  WS02006232WS02006231    1.00   0.00  0.00  0.00  0.99  0.00  0.00  0.00  0.00  0.00
  WS02006231WS02006230    1.00   0.00  0.00  0.00  0.61  0.00  0.39  0.00  0.00  0.00
  WS02006230WS02006229    1.00   0.00  0.00  0.00  0.99  0.00  0.00  0.01  0.01  0.00
  WS02006228WS02006109    1.00   0.00  0.00  0.00  1.00  0.00  0.00  0.00  0.00  0.00
  WS02006116WS02004401    1.00   0.02  0.00  0.00  0.98  0.00  0.00  0.00  0.00  0.00
  WS02006115WS02006116    1.00   0.02  0.00  0.00  0.97  0.00  0.00  0.01  0.00  0.00
  WS02006113WS02006111    1.00   0.01  0.00  0.00  0.00  0.99  0.00  0.00  0.12  0.00
  WS02006112WS02006115    1.00   0.01  0.01  0.00  0.97  0.00  0.00  0.00  0.00  0.00
  WS02006111WS02006112    1.00   0.01  0.00  0.00  0.98  0.00  0.00  0.00  0.95  0.00
  WS02006110WS02006113    1.00   0.00  0.01  0.00  0.99  0.00  0.00  0.00  0.00  0.00
  WS02006109WS02006110    1.00   0.00  0.00  0.00  1.00  0.00  0.00  0.00  0.00  0.00
  WS02004411WS02004412    1.00   0.03  0.00  0.00  0.97  0.00  0.00  0.00  0.00  0.00
  WS02004401WS02004402    1.00   0.02  0.00  0.00  0.98  0.00  0.00  0.00  0.00  0.00
  WS02004413WS02003067    1.00   0.03  0.01  0.00  0.00  0.00  0.96  0.00  0.00  0.00
  WS02004412WS02004413    1.00   0.03  0.00  0.00  0.97  0.00  0.00  0.00  0.01  0.00
  WS02004410WS02004411    1.00   0.03  0.00  0.00  0.97  0.00  0.00  0.00  0.01  0.00
  WS02004409WS02004410    1.00   0.03  0.00  0.00  0.97  0.00  0.00  0.00  0.03  0.00
  WS02004407WS02004409    1.00   0.03  0.00  0.00  0.97  0.00  0.00  0.00  0.91  0.00
  WS02004406WS02004407    1.00   0.00  0.03  0.00  0.97  0.00  0.00  0.00  0.00  0.00
  WS02004405WS02004406    1.00   0.00  0.00  0.00  1.00  0.00  0.00  0.00  0.03  0.00
  WS02004404WS02004405    1.00   0.00  0.00  0.00  1.00  0.00  0.00  0.00  0.00  0.00
  WS02004403WS02004404    1.00   0.00  0.03  0.00  0.97  0.00  0.00  0.00  0.00  0.00
  WS02004402WS02004403    1.00   0.03  0.00  0.00  0.97  0.00  0.00  0.00  0.00  0.00
  WS02004139WS02001211    1.00   0.00  0.00  0.00  1.00  0.00  0.00  0.00  0.00  0.00
  WS02004138WS02004139    1.00   0.00  0.00  0.00  1.00  0.00  0.00  0.00  1.00  0.00
  WS02003067WS02003066    1.00   0.04  0.00  0.00  0.95  0.00  0.00  0.00  0.00  0.00
  WS02001213WS02003059    1.00   0.00  0.00  0.00  1.00  0.00  0.00  0.00  0.00  0.00
  WS02001212WS02001213    1.00   0.00  0.00  0.00  0.85  0.00  0.15  0.00  0.00  0.00
  WS02001211WS02001212    1.00   0.00  0.00  0.00  1.00  0.00  0.00  0.00  0.00  0.00
  WS02003072WS02003073    1.00   0.00  0.00  0.00  0.00  0.00  0.00  1.00  0.00  0.00
  WS02003069WS02003072    1.00   0.00  0.00  0.00  1.00  0.00  0.00  0.00  0.23  0.00
  WS02003060WS02003069    1.00   0.00  0.00  0.00  0.98  0.02  0.00  0.00  0.14  0.00
  WS02003059WS02003060    1.00   0.00  0.00  0.00  1.00  0.00  0.00  0.00  0.02  0.00
  HS02004901HS02004770    1.00   0.04  0.00  0.00  0.96  0.00  0.00  0.00  0.00  0.00
  HS02004876HS02004881    1.00   0.00  0.00  0.00  1.00  0.00  0.00  0.00  0.00  0.00
  HS02004870HS02004876    1.00   0.00  0.00  0.00  1.00  0.00  0.00  0.00  0.95  0.00
  HS02004842HS02004848    1.00   0.00  0.04  0.00  0.96  0.00  0.00  0.00  0.61  0.00
  HS02004837HS02004842    1.00   0.00  0.00  0.00  1.00  0.00  0.00  0.00  0.11  0.00
  HS02004830HS02004837    1.00   0.00  0.00  0.00  1.00  0.00  0.00  0.00  0.99  0.00
  HS02004824HS02004830    1.00   0.00  0.00  0.00  1.00  0.00  0.00  0.00  0.00  0.00
  HS02004817HS02004824    1.00   0.00  0.00  0.00  1.00  0.00  0.00  0.00  1.00  0.00
  HS02004770HS02004777    1.00   0.00  0.04  0.00  0.96  0.00  0.00  0.00  0.03  0.00
  HS02004799HS02004480    1.00   0.00  0.01  0.00  0.95  0.00  0.04  0.00  0.00  0.00
  HS02004792HS02004799    1.00   0.00  0.00  0.00  1.00  0.00  0.00  0.00  0.98  0.00
  HS02004788HS02004792    1.00   0.00  0.00  0.00  1.00  0.00  0.00  0.00  0.98  0.00
  HS02004785HS02004788    1.00   0.00  0.00  0.00  1.00  0.00  0.00  0.00  0.00  0.00
  HS02004777HS02004785    1.00   0.00  0.00  0.00  1.00  0.00  0.00  0.00  0.13  0.00
  HS02004480HS02004478    1.00   0.04  0.00  0.00  0.68  0.00  0.00  0.28  0.00  0.00
  HS02004479HS02004480    1.00   0.01  0.00  0.00  0.99  0.00  0.00  0.00  0.12  0.00
  HS02004862HS02004870    1.00   0.00  0.00  0.00  1.00  0.00  0.00  0.00  0.06  0.00
  HS02004848HS02004852    1.00   0.04  0.00  0.00  0.96  0.00  0.00  0.00  0.69  0.00
  HS02004856HS02004862    1.00   0.00  0.05  0.00  0.95  0.00  0.00  0.00  0.81  0.00
  HS02004852HS02004856    1.00   0.04  0.00  0.00  0.96  0.00  0.00  0.00  0.86  0.00
  HS02004802HS02004478    1.00   0.04  0.00  0.00  0.96  0.00  0.00  0.00  0.03  0.00
  HS02004478WS02006287    1.00   0.05  0.00  0.00  0.77  0.18  0.00  0.00  0.77  0.00
  HS02004817HS02004807    1.00   0.00  0.04  0.00  0.96  0.00  0.00  0.00  0.01  0.00
  HS02004807HS02004802    1.00   0.04  0.00  0.00  0.96  0.00  0.00  0.00  0.00  0.00
  YS02001759YS02001757    1.00   0.00  0.00  0.00  1.00  0.00  0.00  0.00  0.16  0.00
  YS02001762YS02001759    1.00   0.00  0.00  0.00  1.00  0.00  0.00  0.00  0.03  0.00
  YS02001765YS02001762    1.00   0.00  0.00  0.00  1.00  0.00  0.00  0.00  0.15  0.00
  YS02001770YS02001767    1.00   0.00  0.00  0.00  1.00  0.00  0.00  0.00  0.00  0.00
  YS02001774YS02001770    1.00   0.00  0.04  0.00  0.96  0.00  0.00  0.00  0.03  0.00
  YS02001779YS02001774    1.00   0.00  0.00  0.00  1.00  0.00  0.00  0.00  0.21  0.00
  YS02001649YS02001757    1.00   0.00  0.00  0.00  1.00  0.00  0.00  0.00  0.16  0.00
  YS02001767YS02001765    1.00   0.00  0.00  0.00  1.00  0.00  0.00  0.00  0.01  0.00
  YS02006561YS02001783    1.00   0.05  0.00  0.00  0.20  0.75  0.00  0.00  0.72  0.00
  YS02001783YS02001784    1.00   0.00  0.05  0.00  0.95  0.00  0.00  0.00  0.01  0.00
  YS02001784YS02001785    1.00   0.00  0.00  0.00  1.00  0.00  0.00  0.00  0.19  0.00
  YS02001788YS02001790    1.00   0.00  0.00  0.00  0.27  0.73  0.00  0.00  0.60  0.00
  YS02001790YS02001791    1.00   0.00  0.00  0.00  0.23  0.77  0.00  0.00  0.57  0.00
  YS02001791YS02001793    1.00   0.00  0.00  0.00  0.26  0.74  0.00  0.00  0.01  0.00
  YS02001910YS02001907    1.00   0.00  0.00  0.00  0.99  0.00  0.00  0.00  0.12  0.00
  YS02001786YS02001788    1.00   0.00  0.00  0.00  0.26  0.74  0.00  0.00  0.00  0.00
  YS02001915YS02001910    1.00   0.00  0.00  0.00  0.99  0.01  0.00  0.00  0.18  0.00
  YS02001918YS02001915    1.00   0.00  0.00  0.00  1.00  0.00  0.00  0.00  0.69  0.00
  YS02001923YS02001920    1.00   0.00  0.00  0.00  1.00  0.00  0.00  0.00  1.00  0.00
  YS02001926YS02001923    1.00   0.00  0.03  0.00  0.00  0.00  0.97  0.00  0.00  0.00
  YS02001929YS02001926    1.00   0.00  0.04  0.00  0.96  0.00  0.00  0.00  0.87  0.00
  YS02001920YS02001918    1.00   0.00  0.00  0.00  1.00  0.00  0.00  0.00  0.00  0.00
  YS02001629YS02163301    1.00   0.04  0.00  0.00  0.95  0.00  0.00  0.00  0.00  0.00
  YS02001619YS02001622    1.00   0.04  0.00  0.00  0.96  0.00  0.00  0.00  0.00  0.00
  YS02001622YS02001625    1.00   0.04  0.00  0.00  0.96  0.00  0.00  0.00  0.07  0.00
  YS02001625YS02001629    1.00   0.04  0.01  0.00  0.93  0.00  0.02  0.00  0.00  0.00
  YS02163301YS02001633    1.00   0.00  0.04  0.00  0.96  0.00  0.00  0.00  0.00  0.00
  YS02163601YS02164001    1.00   0.00  0.03  0.00  0.97  0.00  0.00  0.00  0.00  0.00
  YS02164001YS02001641    1.00   0.00  0.03  0.00  0.97  0.00  0.00  0.00  0.06  0.00
  YS02001641YS02001644    1.00   0.00  0.00  0.00  1.00  0.00  0.00  0.00  0.00  0.00
  YS02001647YS02001649    1.00   0.00  0.05  0.00  0.95  0.00  0.00  0.00  0.01  0.00
  YS02006553YS02006556    1.00   0.00  0.00  0.00  1.00  0.00  0.00  0.00  0.03  0.00
  YS02006556YS02006558    1.00   0.00  0.00  0.00  1.00  0.00  0.00  0.00  0.00  0.00
  YSB6556YSB1171          1.00   0.01  0.03  0.00  0.96  0.00  0.00  0.00  0.00  0.00
  YS02001907YS02006553    1.00   0.00  0.00  0.00  1.00  0.00  0.00  0.00  0.00  0.00
  YS02006558YS02006561    1.00   0.05  0.00  0.00  0.00  0.95  0.00  0.00  0.61  0.00
  YS02001633YS02163601    1.00   0.00  0.00  0.00  1.00  0.00  0.00  0.00  0.15  0.00
  YS02001644YS02001647    1.00   0.00  0.05  0.00  0.95  0.00  0.00  0.00  0.00  0.00
  YS02001745YS02001748    1.00   0.00  0.00  0.00  0.88  0.01  0.00  0.11  0.06  0.00
  YS02001748YS02001751    1.00   0.00  0.00  0.00  0.97  0.03  0.00  0.00  0.16  0.00
  YS02001751YS02001754    1.00   0.00  0.00  0.00  0.94  0.00  0.00  0.06  0.02  0.00
  YS02001754YS02001757    1.00   0.00  0.00  0.00  1.00  0.00  0.00  0.00  0.20  0.00
  YS02001882YS02001884    1.00   0.04  0.00  0.00  0.95  0.00  0.00  0.00  0.00  0.00
  YS02001884YS02001887    1.00   0.03  0.01  0.00  0.96  0.00  0.00  0.00  0.00  0.00
  YS02001890YS02001895    1.00   0.00  0.05  0.00  0.95  0.00  0.00  0.00  0.00  0.00
  YS02001895YS02001898    1.00   0.05  0.00  0.00  0.94  0.00  0.01  0.00  0.00  0.00
  YS02001898YS02001901    1.00   0.05  0.00  0.00  0.95  0.00  0.00  0.00  0.03  0.00
  YS02001901YS02001904    1.00   0.05  0.00  0.00  0.95  0.00  0.00  0.00  0.00  0.00
  YS02001904YS02001907    1.00   0.00  0.05  0.00  0.95  0.00  0.00  0.00  0.00  0.00
  YS02001887YS02001890    1.00   0.00  0.00  0.00  0.99  0.00  0.00  0.00  0.00  0.00
  YS02001652YS02001649    1.00   0.00  0.00  0.00  1.00  0.00  0.00  0.00  0.18  0.00
  YS02001655YS02001652    1.00   0.00  0.00  0.00  0.94  0.00  0.00  0.06  0.02  0.00
  YS02001658YS02001655    1.00   0.00  0.04  0.00  0.93  0.03  0.00  0.00  0.12  0.00
  YS02001661YS02001658    1.00   0.04  0.00  0.00  0.87  0.08  0.00  0.00  0.15  0.00
  YS02001664YS02001661    1.00   0.04  0.00  0.00  0.86  0.10  0.00  0.00  0.29  0.00
  YSB1154YSB6556          1.00   0.04  0.00  0.00  0.96  0.00  0.00  0.00  0.02  0.00
  YSB1174YSB1171          1.00   0.02  0.01  0.00  0.97  0.00  0.00  0.00  0.00  0.00
  YSB1171HS02004479       1.00   0.01  0.00  0.00  0.97  0.00  0.00  0.01  0.10  0.00
  HS02004881HS02006253    1.00   0.02  0.00  0.00  0.77  0.02  0.00  0.19  0.62  0.00
  YS02001793JiankangQianchi    1.00   0.00  0.00  0.00  0.49  0.51  0.00  0.00  0.25  0.00
  YS02001757CaochengTiaoxuchi    1.00   0.00  0.07  0.00  0.93  0.00  0.00  0.00  0.00  0.00
  WSF200WS02003060        1.00   0.00  0.03  0.00  0.63  0.34  0.00  0.00  0.23  0.00
  1                       1.00   0.00  0.00  0.00  0.00  1.00  0.00  0.00  0.32  0.00
  2                       1.00   0.70  0.00  0.00  0.00  0.30  0.00  0.00  0.06  0.00
  3                       1.00   0.24  0.00  0.00  0.00  0.76  0.00  0.00  0.06  0.00
  4                       1.00   1.00  0.00  0.00  0.00  0.00  0.00  0.00  0.00  0.00
  
  
  *************************
  Conduit Surcharge Summary
  *************************
  
  ----------------------------------------------------------------------------
                                                           Hours        Hours 
                         --------- Hours Full --------   Above Full   Capacity
  Conduit                Both Ends  Upstream  Dnstream   Normal Flow   Limited
  ----------------------------------------------------------------------------
  WS02006229WS02006228        1.84      2.30      1.84      4.94         1.84
  WS02006256WS02006235        6.16      6.17      7.65      3.16         0.01
  WS02006252WS02006251        0.76      0.76      1.82      1.55         0.01
  WS02006251WS02006249        0.01      0.01      0.01      0.79         0.01
  WS02006249WS02006248        0.01      0.01      0.01      4.62         0.01
  WS02006247WS02006245        0.01      0.01      0.01      4.88         0.01
  WS02006245WS02006243        0.01      0.01      0.01      0.01         0.01
  WS02006243WS02006242        0.01      0.01      0.63      0.01         0.01
  WS02006242WS02006240        0.09      0.09      1.08      1.93         0.01
  WS02006240WS02006239        0.25      0.25      0.36      0.05         0.01
  WS02006239WS02006238        0.96      0.96      1.10      0.05         0.02
  WS02006238WS02006235        0.93      0.93      1.45      0.01         0.01
  WS02006235WS02006234        0.14      0.14      0.71      6.19         0.01
  WS02006234WS02006232        0.32      0.32      1.61      0.01         0.01
  WS02006232WS02006231        0.01      0.01      1.61      0.01         0.01
  WS02006231WS02006230        0.01      0.01      0.01      6.20         0.01
  WS02006230WS02006229        3.22      4.51      3.22      6.30         3.22
  WS02006228WS02006109        2.03      3.00      2.03      5.45         2.03
  WS02006112WS02006115        0.01      0.01      0.19      0.01         0.01
  WS02006111WS02006112        0.01      0.01      5.05      0.01         0.01
  WS02006110WS02006113        0.01      0.01      2.58      0.01         0.01
  WS02006109WS02006110        0.05      0.05      3.00      0.06         0.01
  WS02004405WS02004406        0.01      0.01      0.01      0.13         0.01
  WS02004404WS02004405        0.01      0.01      0.01      5.99         0.01
  WS02003072WS02003073        0.01      0.01      0.01      4.74         0.01
  YS02001759YS02001757        5.54      5.54      5.64      0.01         0.01
  YS02001762YS02001759        5.51      5.51      5.54      0.01         0.01
  YS02001765YS02001762        5.47      5.47      5.51      0.01         0.01
  YS02001770YS02001767        5.44      5.44      5.44      0.01         0.57
  YS02001774YS02001770        5.42      5.42      5.49      0.01         0.01
  YS02001779YS02001774        5.18      5.18      5.49      0.01         0.01
  YS02001649YS02001757        5.51      5.51      5.64      0.01         0.01
  YS02001767YS02001765        5.44      5.44      5.47      0.01         0.01
  YS02006561YS02001783        0.01      0.01      0.25      0.01         0.01
  YS02001783YS02001784        0.25      0.25      0.41      0.01         0.03
  YS02001784YS02001785        0.28      0.41      0.28      1.08         0.25
  YS02001788YS02001790        0.16      0.16      1.22      0.01         0.01
  YS02001790YS02001791        1.22      1.22      1.25      0.01         0.01
  YS02001791YS02001793        1.25      1.25      1.51      0.01         0.01
  YS02001910YS02001907        0.01      0.01      0.30      0.01         0.01
  YS02001786YS02001788        0.16      0.28      0.16      0.60         0.13
  YS02001629YS02163301        5.41      5.41      5.43      0.01         0.01
  YS02001619YS02001622        4.76      4.77      4.88      0.01         0.02
  YS02001622YS02001625        4.88      4.88      5.37      0.01         0.01
  YS02001625YS02001629        4.81      4.81      5.37      0.01         0.01
  YS02163301YS02001633        5.43      5.43      5.47      0.01         0.01
  YS02163601YS02164001        5.47      5.47      5.51      0.01         0.01
  YS02164001YS02001641        5.47      5.47      5.48      0.01         0.02
  YS02001641YS02001644        5.48      5.48      5.48      0.01         0.70
  YS02001647YS02001649        5.34      5.34      5.51      0.01         0.01
  YS02006553YS02006556        0.01      0.01      0.39      0.01         0.01
  YS02006556YS02006558        0.06      0.06      0.51      0.01         0.01
  YS02001907YS02006553        1.13      1.13      1.35      0.01         0.01
  YS02006558YS02006561        0.01      0.01      0.01      0.94         0.01
  YS02001633YS02163601        5.46      5.46      5.51      0.01         0.01
  YS02001644YS02001647        5.34      5.34      5.48      0.01         0.01
  YS02001745YS02001748        0.01      0.01      4.39      0.01         0.01
  YS02001748YS02001751        4.51      4.51      4.83      0.01         0.01
  YS02001751YS02001754        4.83      4.83      5.23      0.01         0.01
  YS02001754YS02001757        5.32      5.32      5.64      0.01         0.01
  YS02001904YS02001907        0.01      0.01      0.43      0.01         0.01
  YS02001652YS02001649        5.35      5.35      5.51      0.01         0.01
  YS02001655YS02001652        4.84      4.84      5.30      0.01         0.01
  YS02001658YS02001655        4.42      4.42      4.84      0.01         0.01
  YS02001661YS02001658        0.06      0.06      4.42      0.01         0.01
  YS02001664YS02001661        0.01      0.01      0.62      0.01         0.01
  YS02001793JiankangQianchi        1.40      1.40      2.44      0.01         0.01
  YS02001757CaochengTiaoxuchi        4.47      4.47      5.64      0.01         0.01
  
  
  ***************
  Pumping Summary
  ***************
  
  ---------------------------------------------------------------------------------------------------------
                                                  Min       Avg       Max     Total     Power    % Time Off
                        Percent   Number of      Flow      Flow      Flow    Volume     Usage    Pump Curve
  Pump                 Utilized   Start-Ups       LPS       LPS       LPS  10^6 ltr     Kw-hr    Low   High
  ---------------------------------------------------------------------------------------------------------
  CC-Pump-1               64.95           8      0.00    146.11    200.00     2.666      3.62    0.0    6.9
  CC-Pump-2               48.93           5      0.00    131.70    200.00     1.800      2.83    0.0    6.8
  JK-Pump-1               74.43           9      0.00    131.84    300.00     2.269     32.81    0.0    0.0
  JK-Pump-2               74.45           8      0.00    164.09    300.00     2.708     38.70    0.0    0.0
  XR-Pump-1               74.45          10      0.00     65.58     95.00     1.368      8.26    0.0    0.0
  XR-Pump-2               74.42           8      0.00     66.98     95.00     1.425     10.16    0.0    0.0
  XR-Pump-3               74.43          12      0.00     59.11     95.00     1.282      8.22    0.0    0.0
  XR-Pump-4               82.95           9      0.00     69.72     95.00     1.682     11.32    0.0    0.0
  

  Analysis begun on:  Tue Dec 14 21:47:41 2021
  Analysis ended on:  Tue Dec 14 21:47:46 2021
  Total elapsed time: 00:00:05