
  EPA STORM WATER MANAGEMENT MODEL - VERSION 5.1 (Build 5.3.0.dev0)
  --------------------------------------------------------------

  WARNING 04: minimum elevation drop used for Conduit WS02004404WS02004405
  WARNING 03: negative offset ignored for Link YS02001904YS02001907
  
  *********************************************************
  NOTE: The summary statistics displayed in this report are
  based on results found at every computational time step,  
  not just on results from each reporting time step.
  *********************************************************
  
  ****************
  Analysis Options
  ****************
  Flow Units ............... LPS
  Process Models:
    Rainfall/Runoff ........ YES
    RDII ................... NO
    Snowmelt ............... NO
    Groundwater ............ NO
    Flow Routing ........... YES
    Ponding Allowed ........ NO
    Water Quality .......... NO
  Infiltration Method ...... HORTON
  Flow Routing Method ...... DYNWAVE
  Surcharge Method ......... EXTRAN
  Starting Date ............ 08/28/2015 08:00:00
  Ending Date .............. 08/28/2015 15:50:00
  Antecedent Dry Days ...... 8.0
  Report Time Step ......... 00:01:00
  Wet Time Step ............ 00:01:00
  Dry Time Step ............ 00:01:00
  Routing Time Step ........ 5.00 sec
  Variable Time Step ....... YES
  Maximum Trials ........... 8
  Number of Threads ........ 4
  Head Tolerance ........... 0.001500 m
  
  
  **************************        Volume         Depth
  Runoff Quantity Continuity     hectare-m            mm
  **************************     ---------       -------
  Total Precipitation ......         5.556        12.164
  Evaporation Loss .........         0.000         0.000
  Infiltration Loss ........         1.427         3.124
  Surface Runoff ...........         3.072         6.726
  Final Storage ............         1.058         2.316
  Continuity Error (%) .....        -0.016
  
  
  **************************        Volume        Volume
  Flow Routing Continuity        hectare-m      10^6 ltr
  **************************     ---------     ---------
  Dry Weather Inflow .......         0.616         6.165
  Wet Weather Inflow .......         3.071        30.708
  Groundwater Inflow .......         0.000         0.000
  RDII Inflow ..............         0.000         0.000
  External Inflow ..........         0.102         1.024
  External Outflow .........         1.658        16.576
  Flooding Loss ............         1.660        16.600
  Evaporation Loss .........         0.000         0.000
  Exfiltration Loss ........         0.000         0.000
  Initial Stored Volume ....         0.076         0.761
  Final Stored Volume ......         0.635         6.350
  Continuity Error (%) .....        -2.248
  
  
  *************************
  Highest Continuity Errors
  *************************
  Node HS02004842 (16.24%)
  Node YS02001884 (11.70%)
  Node JK-storage (-9.72%)
  Node YSB1171 (3.12%)
  Node HS02004817 (2.99%)
  
  
  ***************************
  Time-Step Critical Elements
  ***************************
  Link WS02006252WS02006251 (45.21%)
  Link 3 (36.86%)
  Link WS02006280WS02006229 (8.27%)
  Link WS02006238WS02006235 (2.76%)
  Link WS02006229WS02006228 (1.18%)
  
  
  ********************************
  Highest Flow Instability Indexes
  ********************************
  Link WS02006113WS02006111 (47)
  Link YS02163301YS02001633 (36)
  Link YS02001629YS02163301 (36)
  Link YS02163601YS02164001 (36)
  Link YS02001619YS02001622 (36)
  
  
  *************************
  Routing Time Step Summary
  *************************
  Minimum Time Step           :     0.49 sec
  Average Time Step           :     0.93 sec
  Maximum Time Step           :     5.00 sec
  Percent in Steady State     :    -0.00
  Average Iterations per Step :     4.42
  Percent Not Converging      :    20.08
  
  
  ***************************
  Subcatchment Runoff Summary
  ***************************
  
  ------------------------------------------------------------------------------------------------------------------------------
                            Total      Total      Total      Total     Imperv       Perv      Total       Total     Peak  Runoff
                           Precip      Runon       Evap      Infil     Runoff     Runoff     Runoff      Runoff   Runoff   Coeff
  Subcatchment                 mm         mm         mm         mm         mm         mm         mm    10^6 ltr      LPS
  ------------------------------------------------------------------------------------------------------------------------------
  sub0                      12.16       0.00       0.00       0.85      10.05       0.00      10.05        0.01     1.91   0.826
  sub1                      12.16       0.00       0.00       1.34       9.56       0.00       9.56        0.06    14.15   0.786
  sub2                      12.16       0.00       0.00       4.50       6.75       0.00       6.75        0.06    13.75   0.555
  sub3                      12.16       0.00       0.00       4.50       6.71       0.00       6.71        0.15    32.07   0.552
  sub4                      12.16       0.00       0.00       1.34       9.40       0.00       9.40        0.20    40.20   0.773
  sub5                      12.16       0.00       0.00       0.85       9.99       0.00       9.99        0.11    25.19   0.822
  sub7                      12.16       0.00       0.00       1.09       9.81       0.00       9.81        0.03     7.55   0.807
  sub8                      12.16       0.00       0.00       1.09       9.80       0.00       9.80        0.06    14.17   0.806
  sub9                      12.16       0.00       0.00       1.09       9.80       0.00       9.80        0.05    10.64   0.806
  sub10                     12.16       0.00       0.00       0.97       9.89       0.00       9.89        0.11    24.40   0.813
  sub11                     12.16       0.00       0.00       0.97       9.91       0.00       9.91        0.12    26.15   0.815
  sub12                     12.16       0.00       0.00       1.58       9.39       0.00       9.39        0.08    19.06   0.772
  sub14                     12.16       0.00       0.00       1.09       9.80       0.00       9.80        0.09    21.02   0.805
  sub15                     12.16       0.00       0.00       3.65       7.53       0.00       7.53        0.13    29.11   0.619
  sub16                     12.16       0.00       0.00       4.01       7.23       0.00       7.23        0.08    17.47   0.594
  sub17                     12.16       0.00       0.00       3.89       7.34       0.00       7.34        0.06    14.47   0.603
  sub22                     12.16       0.00       0.00       5.23       6.14       0.00       6.14        0.39    88.27   0.505
  sub23                     12.16       0.00       0.00       4.50       6.79       0.00       6.79        0.32    73.89   0.558
  sub60                     12.16       0.00       0.00       1.46       7.71       0.00       7.71        2.34   297.17   0.634
  sub61                     12.16       0.00       0.00       2.07       7.87       0.00       7.87        2.43   359.80   0.647
  sub62                     12.16       0.00       0.00       0.97       8.55       0.00       8.55        2.63   372.87   0.703
  sub63                     12.16       0.00       0.00       3.53       6.89       0.00       6.89        2.09   327.80   0.567
  sub64                     12.16       0.00       0.00       1.82       7.40       0.00       7.40        2.25   282.66   0.608
  sub65                     12.16       0.00       0.00       1.58       7.52       0.00       7.52        2.31   287.20   0.618
  sub66                     12.16       0.00       0.00       3.53       6.36       0.00       6.36        1.95   257.27   0.523
  sub67                     12.16       0.00       0.00       0.97       9.05       0.00       9.05        2.79   452.90   0.744
  sub68                     12.16       0.00       0.00       1.70       8.28       0.00       8.28        2.55   391.99   0.681
  sub69                     12.16       0.00       0.00       1.82       8.61       0.00       8.61        2.01   355.79   0.708
  sub70                     12.16       8.79       0.00       7.03      11.43       0.10      11.53        2.64   335.00   0.550
  sub71                     12.16       0.00       0.00       0.97       8.31       0.00       8.31        1.96   263.63   0.683
  sub72                     12.16       0.00       0.00       0.85       6.56       0.00       6.56        1.34   129.40   0.540
  sub73                     12.16      11.23       0.00       7.88      12.47       0.08      12.54        2.95   300.52   0.536
  sub74                     12.16       0.00       0.00       9.12       2.57       0.00       2.57        1.03   189.59   0.211
  
  
  ******************
  Node Depth Summary
  ******************
  
  ---------------------------------------------------------------------------------
                                 Average  Maximum  Maximum  Time of Max    Reported
                                   Depth    Depth      HGL   Occurrence   Max Depth
  Node                 Type       Meters   Meters   Meters  days hr:min      Meters
  ---------------------------------------------------------------------------------
  WS02001211           JUNCTION     0.61     0.76     5.60     0  04:20        0.76
  WS02001212           JUNCTION     0.34     0.47     5.53     0  04:21        0.47
  WS02001213           JUNCTION     0.58     0.70     5.46     0  04:21        0.70
  WS02003069           JUNCTION     0.40     0.51     5.10     0  03:09        0.51
  WS02003072           JUNCTION     0.47     0.58     4.95     0  03:10        0.58
  WS02003073           JUNCTION     0.28     0.35     4.42     0  03:11        0.35
  WS02003060           JUNCTION     0.36     0.45     5.39     0  03:09        0.45
  WS02003066           JUNCTION     0.22     0.28     5.83     0  03:08        0.28
  WS02003059           JUNCTION     0.64     0.75     5.43     0  04:21        0.75
  WS02003067           JUNCTION     0.55     0.67     5.99     0  03:08        0.67
  WS02004401           JUNCTION     0.64     0.78     6.78     0  03:05        0.78
  WS02004402           JUNCTION     0.67     0.81     6.77     0  03:05        0.81
  WS02004403           JUNCTION     0.70     0.83     6.76     0  03:05        0.83
  WS02004404           JUNCTION     0.77     0.91     6.76     0  03:05        0.91
  WS02004406           JUNCTION     0.78     0.91     6.74     0  03:05        0.91
  WS02004409           JUNCTION     0.46     0.60     6.37     0  03:06        0.60
  WS02004410           JUNCTION     0.48     0.62     6.34     0  03:07        0.62
  WS02004411           JUNCTION     0.50     0.63     6.31     0  03:07        0.63
  WS02004412           JUNCTION     0.51     0.65     6.29     0  03:07        0.65
  WS02004413           JUNCTION     0.67     0.81     6.28     0  03:08        0.81
  WS02004405           JUNCTION     0.77     0.90     6.75     0  03:05        0.90
  WS02006109           JUNCTION     0.72     0.87     7.49     0  03:03        0.87
  WS02006110           JUNCTION     0.72     0.85     7.43     0  03:03        0.85
  WS02006111           JUNCTION     0.21     0.26     6.97     0  03:04        0.26
  WS02006112           JUNCTION     0.81     0.97     6.85     0  03:04        0.97
  WS02006113           JUNCTION     0.32     0.41     7.30     0  03:03        0.41
  WS02006115           JUNCTION     0.53     0.68     6.82     0  03:04        0.68
  WS02006116           JUNCTION     0.61     0.76     6.80     0  03:04        0.76
  WS02006230           JUNCTION     0.67     0.86     7.61     0  04:32        0.86
  WS02006231           JUNCTION     0.43     0.59     7.72     0  04:32        0.59
  WS02006232           JUNCTION     0.57     0.74     7.78     0  04:32        0.74
  WS02006234           JUNCTION     0.48     0.70     7.86     0  04:32        0.70
  WS02006235           JUNCTION     0.51     0.74     7.90     0  04:32        0.74
  WS02006238           JUNCTION     0.54     0.77     7.91     0  04:32        0.77
  WS02006240           JUNCTION     0.43     0.70     7.99     0  04:32        0.70
  WS02006242           JUNCTION     0.49     0.77     8.04     0  04:31        0.76
  WS02006243           JUNCTION     0.37     0.65     8.07     0  04:32        0.65
  WS02006245           JUNCTION     0.36     0.62     8.11     0  04:32        0.62
  WS02006247           JUNCTION     0.38     0.63     8.13     0  04:31        0.63
  WS02006248           JUNCTION     0.33     0.57     8.16     0  07:49        0.57
  WS02006249           JUNCTION     0.37     0.59     8.19     0  07:50        0.59
  WS02006239           JUNCTION     0.49     0.74     7.95     0  04:31        0.74
  WS02006251           JUNCTION     0.36     0.61     8.28     0  07:50        0.61
  WS02006252           JUNCTION     0.32     0.59     8.83     0  07:47        0.59
  WS02006253           JUNCTION     0.39     0.64     8.28     0  07:49        0.64
  WS02006256           JUNCTION     0.96     2.35     9.28     0  00:00        1.20
  WS02004138           JUNCTION     0.13     0.19     7.44     0  04:20        0.19
  WS02004407           JUNCTION     0.21     0.27     6.58     0  03:06        0.27
  WS02006228           JUNCTION     0.71     0.89     7.54     0  03:02        0.89
  WS02006229           JUNCTION     0.68     0.87     7.56     0  03:02        0.87
  WS02006280           JUNCTION     0.06     0.19     8.46     0  03:02        0.19
  WS02006284           JUNCTION     0.35     0.55     8.95     0  03:02        0.55
  WS02006287           JUNCTION     0.08     0.28     9.24     0  03:01        0.28
  WSF200               JUNCTION     0.20     0.28     5.51     0  03:08        0.28
  HS02004901           JUNCTION     0.11     0.28    10.10     0  03:01        0.28
  HS02004881           JUNCTION     0.01     0.04     9.07     0  03:01        0.04
  HS02004876           JUNCTION     0.04     0.12     9.15     0  03:01        0.12
  HS02004870           JUNCTION     0.01     0.06     9.35     0  03:01        0.06
  HS02004862           JUNCTION     0.02     0.07     9.46     0  03:01        0.07
  HS02004856           JUNCTION     0.08     0.13     9.55     0  03:01        0.13
  HS02004852           JUNCTION     0.01     0.05     9.56     0  03:01        0.05
  HS02004848           JUNCTION     0.01     0.05     9.65     0  03:01        0.05
  HS02004842           JUNCTION     0.33     0.38     9.65     0  03:01        0.38
  HS02004837           JUNCTION     0.03     0.07     9.65     0  03:01        0.07
  HS02004830           JUNCTION     0.04     0.08     9.55     0  03:01        0.08
  HS02004824           JUNCTION     0.02     0.06     9.46     0  03:01        0.06
  HS02004817           JUNCTION     0.43     0.60     9.44     0  03:01        0.60
  HS02004807           JUNCTION     0.12     0.27     9.44     0  03:01        0.27
  HS02004802           JUNCTION     0.15     0.30     9.43     0  03:01        0.30
  HS02004799           JUNCTION     0.10     0.33     9.54     0  03:01        0.33
  HS02004792           JUNCTION     0.03     0.14     9.66     0  03:01        0.14
  HS02004788           JUNCTION     0.02     0.10    10.00     0  03:01        0.10
  HS02004785           JUNCTION     0.04     0.17    10.07     0  03:01        0.17
  HS02004777           JUNCTION     0.14     0.30    10.10     0  03:01        0.30
  HS02004770           JUNCTION     0.11     0.27    10.10     0  03:01        0.27
  HS02004480           JUNCTION     0.07     0.26     9.50     0  03:01        0.26
  HS02004479           JUNCTION     0.10     0.30     9.50     0  03:01        0.30
  HS02004478           JUNCTION     0.05     0.18     9.41     0  03:01        0.18
  YS02001745           JUNCTION     0.72     0.90     8.42     0  03:19        0.90
  YS02001748           JUNCTION     1.12     1.47     8.55     0  02:42        1.34
  YS02001751           JUNCTION     1.30     1.58     8.46     0  02:42        1.54
  YS02001754           JUNCTION     1.55     1.82     8.43     0  03:15        1.81
  YS02001762           JUNCTION     1.75     2.03     8.43     0  03:18        2.02
  YS02001765           JUNCTION     1.70     1.98     8.43     0  03:08        1.97
  YS02001767           JUNCTION     1.67     1.93     8.42     0  03:08        1.92
  YS02001770           JUNCTION     1.66     1.91     8.41     0  03:28        1.90
  YS02001774           JUNCTION     1.73     1.97     8.40     0  03:28        1.97
  YS02001779           JUNCTION     1.48     1.68     8.37     0  02:49        1.68
  YS02001882           JUNCTION     0.44     1.61     8.33     0  02:53        1.60
  YS02001884           JUNCTION     0.54     1.71     8.33     0  03:00        1.70
  YS02001759           JUNCTION     1.78     2.07     8.43     0  03:08        2.06
  YS02001887           JUNCTION     0.61     1.79     8.33     0  03:00        1.78
  YS02001890           JUNCTION     0.64     1.81     8.31     0  02:59        1.80
  YS02001898           JUNCTION     0.41     1.56     8.29     0  02:53        1.55
  YS02001901           JUNCTION     0.53     1.67     8.28     0  03:00        1.66
  YS02001904           JUNCTION     0.51     1.63     8.26     0  02:55        1.63
  YS02001907           JUNCTION     0.84     1.96     8.25     0  02:52        1.96
  YS02001910           JUNCTION     0.63     1.77     8.28     0  02:53        1.77
  YS02001915           JUNCTION     0.43     1.58     8.30     0  02:53        1.57
  YS02001918           JUNCTION     0.19     1.25     8.31     0  02:53        1.25
  YS02001619           JUNCTION     1.26     1.49     8.42     0  07:45        1.47
  YS02001629           JUNCTION     1.61     1.85     8.40     0  02:46        1.84
  YS02001641           JUNCTION     1.71     1.94     8.38     0  02:46        1.93
  YS02001644           JUNCTION     1.72     1.92     8.35     0  02:46        1.92
  YS02001652           JUNCTION     1.56     2.10     8.69     0  02:51        2.01
  YS02001655           JUNCTION     1.33     2.10     8.95     0  02:51        1.92
  YS02001920           JUNCTION     0.30     1.32     8.33     0  02:53        1.32
  YS02001923           JUNCTION     0.15     1.07     8.33     0  02:53        1.07
  YS02001926           JUNCTION     0.22     0.90     8.35     0  02:53        0.90
  YS02001929           JUNCTION     0.12     0.67     8.37     0  02:53        0.62
  YS02001658           JUNCTION     1.06     2.10     9.24     0  02:51        1.79
  YS02001661           JUNCTION     0.83     2.10     9.50     0  04:07        1.67
  YS02001664           JUNCTION     0.37     0.57     8.49     0  02:50        0.56
  YS02001622           JUNCTION     1.28     1.51     8.41     0  07:45        1.50
  YS02001633           JUNCTION     1.70     1.96     8.41     0  02:46        1.94
  YS02001649           JUNCTION     1.76     2.05     8.44     0  02:50        2.05
  YS02001757           JUNCTION     1.88     2.17     8.43     0  04:13        2.17
  YS02001895           JUNCTION     0.41     1.56     8.30     0  03:00        1.55
  YS02001625           JUNCTION     1.57     1.78     8.38     0  02:46        1.78
  YS02163301           JUNCTION     1.64     1.89     8.41     0  02:46        1.88
  YS02163601           JUNCTION     1.76     2.00     8.40     0  02:46        1.98
  YS02164001           JUNCTION     1.70     1.93     8.39     0  02:46        1.91
  YS02001647           JUNCTION     1.55     1.80     8.41     0  02:51        1.79
  YSB1154              JUNCTION     0.24     0.45     9.51     0  03:01        0.45
  YSB6556              JUNCTION     0.14     0.34     9.51     0  03:01        0.34
  YSB1174              JUNCTION     0.20     0.40     9.51     0  03:01        0.40
  YSB1171              JUNCTION     0.39     0.60     9.51     0  03:01        0.60
  YS02006553           JUNCTION     0.84     1.96     8.25     0  02:59        1.96
  YS02006561           JUNCTION     0.24     1.08     7.74     0  03:00        1.07
  YS02006556           JUNCTION     0.81     1.92     8.23     0  03:01        1.92
  YS02006558           JUNCTION     0.86     1.96     8.22     0  02:57        1.95
  YS02001783           JUNCTION     0.44     1.47     7.61     0  03:00        1.46
  YS02001784           JUNCTION     0.46     1.41     7.48     0  02:59        1.41
  YS02001786           JUNCTION     0.41     1.27     7.30     0  02:53        1.25
  YS02001788           JUNCTION     0.35     1.13     7.11     0  03:00        1.12
  YS02001790           JUNCTION     0.44     1.96     7.60     0  02:14        1.29
  YS02001791           JUNCTION     0.39     1.65     7.12     0  02:14        1.27
  YS02001793           JUNCTION     0.52     2.23     7.06     0  02:11        1.80
  WS02004139           JUNCTION     0.55     0.71     5.62     0  04:20        0.71
  WSC                  OUTFALL      0.28     0.35     1.02     0  03:11        0.35
  3                    OUTFALL      0.09     0.23     6.23     0  00:00        0.20
  4                    OUTFALL      0.01     0.09     7.09     0  07:50        0.09
  5                    OUTFALL      0.00     0.00     5.00     0  00:00        0.00
  JK-storage           STORAGE      2.17     5.80     6.60     0  02:15        5.80
  CC-storage           STORAGE      1.14     1.41     8.41     0  03:17        1.41
  XR-storage           STORAGE      7.11     7.72     5.72     0  02:55        7.72
  
  
  *******************
  Node Inflow Summary
  *******************
  
  -------------------------------------------------------------------------------------------------
                                  Maximum  Maximum                  Lateral       Total        Flow
                                  Lateral    Total  Time of Max      Inflow      Inflow     Balance
                                   Inflow   Inflow   Occurrence      Volume      Volume       Error
  Node                 Type           LPS      LPS  days hr:min    10^6 ltr    10^6 ltr     Percent
  -------------------------------------------------------------------------------------------------
  WS02001211           JUNCTION      7.35   380.74     0  04:20       0.207        6.34       0.493
  WS02001212           JUNCTION      0.00   376.27     0  04:20           0         6.3       0.261
  WS02001213           JUNCTION      0.00   375.09     0  04:21           0        6.29       0.344
  WS02003069           JUNCTION      0.32   756.86     0  03:09     0.00902        13.4       0.222
  WS02003072           JUNCTION      0.00   756.81     0  03:10           0        13.4       0.272
  WS02003073           JUNCTION      1.82   758.63     0  03:10      0.0514        13.4       0.304
  WS02003060           JUNCTION     16.53   756.50     0  03:08       0.466        13.4       0.212
  WS02003066           JUNCTION      0.00   449.86     0  03:08           0        6.73       0.075
  WS02003059           JUNCTION      0.00   374.92     0  04:21           0        6.27       0.583
  WS02003067           JUNCTION      0.00   449.82     0  03:08           0        6.74       0.152
  WS02004401           JUNCTION      0.00   453.72     0  03:04           0           7       0.344
  WS02004402           JUNCTION      0.00   453.32     0  03:04           0        6.98       0.321
  WS02004403           JUNCTION      0.00   452.77     0  03:05           0        6.96       0.289
  WS02004404           JUNCTION      0.16   452.71     0  03:05     0.00457        6.94       0.213
  WS02004406           JUNCTION      0.00   452.57     0  03:05           0        6.91       0.520
  WS02004409           JUNCTION      0.00   452.47     0  03:06           0        6.86       0.282
  WS02004410           JUNCTION      0.00   451.67     0  03:06           0        6.84       0.314
  WS02004411           JUNCTION      0.00   451.05     0  03:06           0        6.82       0.318
  WS02004412           JUNCTION      0.00   450.44     0  03:07           0         6.8       0.337
  WS02004413           JUNCTION      0.00   450.01     0  03:07           0        6.78       0.491
  WS02004405           JUNCTION      0.04   452.62     0  03:05     0.00107        6.93       0.321
  WS02006109           JUNCTION      1.23   446.15     0  03:03      0.0347        7.08       0.315
  WS02006110           JUNCTION      0.00   446.15     0  03:03           0        7.06       0.307
  WS02006111           JUNCTION      0.00   459.20     0  03:03           0        7.02       0.077
  WS02006112           JUNCTION     14.47   457.62     0  03:03      0.0629        7.08       0.430
  WS02006113           JUNCTION      0.00   446.22     0  03:03           0        7.03       0.164
  WS02006115           JUNCTION      0.00   455.70     0  03:03           0        7.05       0.340
  WS02006116           JUNCTION      0.00   454.56     0  03:03           0        7.03       0.323
  WS02006230           JUNCTION     10.28   398.93     0  04:32        0.29         5.2       0.264
  WS02006231           JUNCTION      0.00   389.97     0  04:31           0        4.93       0.333
  WS02006232           JUNCTION      0.00   390.00     0  05:31           0        4.94       0.357
  WS02006234           JUNCTION      0.00   392.12     0  05:31           0        4.95       0.225
  WS02006235           JUNCTION      0.00   391.82     0  04:31           0        4.99       0.223
  WS02006238           JUNCTION      0.00   314.69     0  07:50           0         3.5       0.263
  WS02006240           JUNCTION      0.00   316.65     0  07:42           0        3.51       0.465
  WS02006242           JUNCTION      0.00   318.58     0  07:41           0        3.52       0.531
  WS02006243           JUNCTION      0.00   323.37     0  07:41           0        3.53       0.209
  WS02006245           JUNCTION      0.00   326.47     0  07:40           0        3.54       0.442
  WS02006247           JUNCTION      0.00   330.05     0  07:10           0        3.55       0.299
  WS02006248           JUNCTION      0.00   333.88     0  07:10           0        3.56       0.191
  WS02006249           JUNCTION      0.00   400.53     0  07:50           0        3.72       0.435
  WS02006239           JUNCTION      0.00   314.85     0  07:43           0         3.5       0.313
  WS02006251           JUNCTION      0.08   401.07     0  07:49     0.00217        3.76       0.375
  WS02006252           JUNCTION      0.00   400.00     0  07:40           0        3.37       0.015
  WS02006253           JUNCTION      1.91    80.98     0  03:01     0.00814       0.391       2.228
  WS02006256           JUNCTION      0.00   600.00     0  00:00           0         4.6       0.044
  WS02004138           JUNCTION      0.00   379.99     0  04:20           0        6.16       0.058
  WS02004407           JUNCTION      0.00   452.51     0  03:05           0        6.87       0.127
  WS02006228           JUNCTION      0.00   444.93     0  03:02           0        7.06       0.234
  WS02006229           JUNCTION      0.00   444.83     0  03:02           0        7.07       0.196
  WS02006280           JUNCTION      0.00   375.57     0  03:02           0        1.89       0.004
  WS02006284           JUNCTION      0.10   375.56     0  03:02      0.0027        1.89       0.064
  WS02006287           JUNCTION      0.00   375.28     0  03:01           0        1.89       0.038
  WSF200               JUNCTION      0.00   449.85     0  03:08           0        6.73       0.079
  HS02004901           JUNCTION     17.47    17.47     0  03:01      0.0757      0.0759       2.380
  HS02004881           JUNCTION      7.55    79.19     0  03:01      0.0331       0.357       0.038
  HS02004876           JUNCTION     14.15    72.10     0  03:01      0.0636       0.324       0.171
  HS02004870           JUNCTION     14.17    58.27     0  03:01      0.0626       0.261       0.043
  HS02004862           JUNCTION     13.95    44.46     0  03:01      0.0685       0.198       0.089
  HS02004856           JUNCTION     10.64    30.79     0  03:01      0.0471       0.131       1.116
  HS02004852           JUNCTION      0.00    20.44     0  03:01           0       0.084       0.069
  HS02004848           JUNCTION     32.07    32.07     0  03:01       0.151       0.151       0.033
  HS02004842           JUNCTION      0.00    11.42     0  03:01           0      0.0801      19.388
  HS02004837           JUNCTION     30.75    41.91     0  03:01       0.288       0.355       0.230
  HS02004830           JUNCTION      0.15    41.84     0  03:01     0.00423       0.346       0.358
  HS02004824           JUNCTION     40.25    81.79     0  03:01       0.198       0.542       0.100
  HS02004817           JUNCTION      0.60    82.19     0  03:01      0.0169       0.558       3.079
  HS02004807           JUNCTION     26.15   107.24     0  03:01       0.115       0.657       0.656
  HS02004802           JUNCTION      0.00   106.49     0  03:01           0       0.653       0.618
  HS02004799           JUNCTION     21.02   227.51     0  03:01      0.0933        1.06       0.236
  HS02004792           JUNCTION     88.55   207.32     0  03:01       0.396       0.966       0.043
  HS02004788           JUNCTION     30.78   119.37     0  03:01       0.177       0.571       0.068
  HS02004785           JUNCTION      0.15    89.79     0  03:01     0.00423       0.396       0.125
  HS02004777           JUNCTION      0.03    90.24     0  03:01    0.000846       0.397       1.326
  HS02004770           JUNCTION     73.89    90.93     0  03:01       0.324       0.398       0.787
  HS02004480           JUNCTION      0.00   269.28     0  03:01           0        1.25       0.099
  HS02004479           JUNCTION      0.00    42.82     0  03:02           0       0.204       0.360
  HS02004478           JUNCTION      0.00   375.18     0  03:01           0        1.89       0.018
  YS02001745           JUNCTION    297.18   297.18     0  03:01        2.34        2.34       0.422
  YS02001748           JUNCTION      0.04   474.96     0  02:40     0.00127        2.33       0.968
  YS02001751           JUNCTION      0.01   309.95     0  03:01     0.00031        2.31       1.022
  YS02001754           JUNCTION      0.26   309.68     0  03:01     0.00733        2.29       1.100
  YS02001762           JUNCTION      0.00   311.38     0  02:50           0        1.78       1.201
  YS02001765           JUNCTION      0.00   310.92     0  02:50           0        1.79       1.371
  YS02001767           JUNCTION      0.54   310.13     0  02:50      0.0151        1.81       2.012
  YS02001770           JUNCTION    373.02   477.24     0  03:20        2.63        2.93       1.086
  YS02001774           JUNCTION      0.00   478.79     0  03:20           0        1.41       1.800
  YS02001779           JUNCTION      0.01   478.65     0  03:19    0.000141        1.38       1.147
  YS02001882           JUNCTION      0.00    12.71     0  02:45           0      0.0176      13.973
  YS02001884           JUNCTION      0.00    22.07     0  02:44           0       0.053      13.253
  YS02001759           JUNCTION    359.84   609.15     0  02:50        2.43        3.88       0.596
  YS02001887           JUNCTION    453.35   453.66     0  03:01         2.8        2.83       0.294
  YS02001890           JUNCTION      0.00   453.78     0  03:01           0        2.79       0.330
  YS02001898           JUNCTION      0.00   454.18     0  03:01           0        2.77       0.113
  YS02001901           JUNCTION      0.00   453.83     0  03:01           0        2.77       0.250
  YS02001904           JUNCTION      0.00   454.21     0  03:01           0        2.77       0.222
  YS02001907           JUNCTION      0.00   860.38     0  02:58           0        6.12       0.393
  YS02001910           JUNCTION      0.00   431.08     0  02:54           0        3.37       0.348
  YS02001915           JUNCTION    263.65   430.24     0  02:54        1.96        3.39       0.179
  YS02001918           JUNCTION      0.00   196.50     0  02:54           0        1.43       0.132
  YS02001619           JUNCTION    257.27   257.27     0  03:01        1.95        1.95       0.632
  YS02001629           JUNCTION      0.00   198.38     0  02:46           0        1.62       1.828
  YS02001641           JUNCTION      0.00   414.74     0  02:47           0        3.83       0.551
  YS02001644           JUNCTION    282.70  1199.26     0  03:19        2.25        8.64       0.309
  YS02001652           JUNCTION      0.00   367.36     0  03:02           0        2.05       1.134
  YS02001655           JUNCTION      0.15   366.44     0  03:02     0.00434        2.07       1.229
  YS02001920           JUNCTION      2.87   196.90     0  02:54      0.0809        1.42       0.200
  YS02001923           JUNCTION      0.04   209.26     0  02:54     0.00106        1.34       0.050
  YS02001926           JUNCTION      0.05   158.04     0  02:59     0.00147        1.34       0.245
  YS02001929           JUNCTION    129.40   129.40     0  03:01        1.34        1.34       0.040
  YS02001658           JUNCTION      0.00   601.55     0  02:36           0         2.1       0.991
  YS02001661           JUNCTION      0.00   661.81     0  02:50           0        2.77      -0.344
  YS02001664           JUNCTION    327.80   354.96     0  02:50        2.09        2.77       0.187
  YS02001622           JUNCTION      0.00   257.80     0  03:01           0        1.94       1.675
  YS02001633           JUNCTION    287.40   416.39     0  02:47        2.32        3.89       0.834
  YS02001649           JUNCTION      0.00   872.32     0  02:47           0        5.26       0.705
  YS02001757           JUNCTION      0.00  1677.19     0  02:48           0        8.53       1.093
  YS02001895           JUNCTION      0.00   453.70     0  03:01           0        2.78       0.175
  YS02001625           JUNCTION      0.00   257.53     0  03:01           0         1.9       2.065
  YS02163301           JUNCTION      0.00   200.06     0  02:46           0         1.6       1.526
  YS02163601           JUNCTION      0.11   416.33     0  02:46      0.0031        3.85       0.785
  YS02164001           JUNCTION      0.00   416.24     0  02:46           0        3.83       0.528
  YS02001647           JUNCTION      0.00   628.81     0  02:47           0        4.37       0.653
  YSB1154              JUNCTION     25.19    25.19     0  03:01       0.113       0.114       1.285
  YSB6556              JUNCTION      0.00    24.92     0  03:01           0       0.115       1.100
  YSB1174              JUNCTION     19.06    19.06     0  03:01      0.0821      0.0828       1.580
  YSB1171              JUNCTION      0.00    43.19     0  03:01           0       0.203       3.219
  YS02006553           JUNCTION      0.00   667.71     0  03:17           0         5.9       0.263
  YS02006561           JUNCTION      0.00   964.50     0  02:59           0        8.42       0.004
  YS02006556           JUNCTION      0.00   667.03     0  03:17           0         5.9       0.190
  YS02006558           JUNCTION    392.87   965.25     0  02:59        2.57        8.45       0.066
  YS02001783           JUNCTION      0.00   964.69     0  03:00           0        8.42       0.030
  YS02001784           JUNCTION      1.06   965.63     0  03:00      0.0299        8.44       0.041
  YS02001786           JUNCTION      0.06   965.61     0  03:00     0.00159        8.44       0.040
  YS02001788           JUNCTION      0.07   965.40     0  03:00       0.002        8.44       0.024
  YS02001790           JUNCTION      0.15   965.71     0  03:00     0.00437        8.44       0.029
  YS02001791           JUNCTION      0.00   965.56     0  03:01           0        8.44       0.017
  YS02001793           JUNCTION      0.00   966.06     0  03:01           0        8.44       0.005
  WS02004139           JUNCTION      0.32   379.47     0  04:20     0.00905        6.16       0.525
  WSC                  OUTFALL       0.00   758.60     0  03:11           0        13.3       0.000
  3                    OUTFALL       0.00   597.65     0  00:00           0        3.09       0.000
  4                    OUTFALL       0.00    85.83     0  07:50           0       0.143       0.000
  5                    OUTFALL       0.00     0.00     0  00:00           0           0       0.000 ltr
  JK-storage           STORAGE       0.00   966.03     0  03:00           0        8.59      -8.863
  CC-storage           STORAGE       0.00  1677.41     0  02:48           0        6.95       0.892
  XR-storage           STORAGE     690.11   690.11     0  03:01        9.61        10.2      -0.001
  
  
  **********************
  Node Surcharge Summary
  **********************
  
  Surcharging occurs when water rises above the top of the highest conduit.
  ---------------------------------------------------------------------
                                               Max. Height   Min. Depth
                                   Hours       Above Crown    Below Rim
  Node                 Type      Surcharged         Meters       Meters
  ---------------------------------------------------------------------
  WS02006109           JUNCTION        1.11          0.049        1.771
  WS02006232           JUNCTION        0.92          0.044        1.436
  WS02006235           JUNCTION        0.27          0.029        1.261
  WS02006238           JUNCTION        0.68          0.048        1.382
  WS02006242           JUNCTION        0.41          0.037        0.783
  WS02006239           JUNCTION        0.02          0.004        1.286
  WS02006252           JUNCTION        1.25          0.192        0.908
  WS02006256           JUNCTION        0.01          1.050        0.000
  WS02006228           JUNCTION        0.96          0.055        2.145
  YS02001748           JUNCTION        5.10          0.390        0.800
  YS02001751           JUNCTION        5.28          0.577        0.623
  YS02001754           JUNCTION        5.44          0.771        0.379
  YS02001762           JUNCTION        5.64          1.031        0.119
  YS02001765           JUNCTION        5.61          0.977        0.123
  YS02001767           JUNCTION        5.59          0.935        0.095
  YS02001770           JUNCTION        5.57          0.882        0.038
  YS02001774           JUNCTION        5.63          0.975        0.075
  YS02001779           JUNCTION        5.43          0.680        0.000
  YS02001882           JUNCTION        0.80          0.609        0.221
  YS02001884           JUNCTION        0.84          0.651        0.219
  YS02001759           JUNCTION        5.66          1.066        0.144
  YS02001887           JUNCTION        0.93          0.737        0.213
  YS02001890           JUNCTION        0.97          0.756        0.004
  YS02001898           JUNCTION        0.76          0.526        0.214
  YS02001901           JUNCTION        0.90          0.670        0.200
  YS02001904           JUNCTION        0.87          0.635        0.215
  YS02001907           JUNCTION        1.51          0.950        0.000
  YS02001910           JUNCTION        1.02          0.774        0.326
  YS02001915           JUNCTION        0.79          0.581        0.419
  YS02001918           JUNCTION        0.54          0.248        0.562
  YS02001619           JUNCTION        5.27          0.489        0.121
  YS02001629           JUNCTION        5.28          0.470        0.000
  YS02001641           JUNCTION        5.62          0.941        0.159
  YS02001644           JUNCTION        5.62          0.920        0.000
  YS02001652           JUNCTION        5.49          1.066        0.064
  YS02001655           JUNCTION        5.29          1.102        0.098
  YS02001920           JUNCTION        0.57          0.322        0.818
  YS02001658           JUNCTION        5.14          1.099        0.201
  YS02001661           JUNCTION        0.21          1.030        0.360
  YS02001622           JUNCTION        5.30          0.506        0.114
  YS02001633           JUNCTION        5.61          0.941        0.119
  YS02001649           JUNCTION        5.64          1.050        0.000
  YS02001757           JUNCTION        5.74          1.173        0.037
  YS02001895           JUNCTION        0.78          0.557        0.193
  YS02001625           JUNCTION        5.54          0.780        0.000
  YS02163301           JUNCTION        5.58          0.893        0.137
  YS02163601           JUNCTION        5.64          1.004        0.076
  YS02164001           JUNCTION        5.61          0.934        0.166
  YS02001647           JUNCTION        5.52          0.803        0.097
  YS02006553           JUNCTION        1.59          0.964        0.226
  YS02006561           JUNCTION        0.67          0.282        0.868
  YS02006556           JUNCTION        1.24          0.879        0.471
  YS02006558           JUNCTION        1.20          0.857        0.543
  YS02001783           JUNCTION        1.47          0.668        0.932
  YS02001784           JUNCTION        1.52          0.613        0.877
  YS02001786           JUNCTION        1.48          0.466        0.964
  YS02001788           JUNCTION        1.45          0.330        1.150
  YS02001790           JUNCTION        1.97          1.157        0.000
  YS02001791           JUNCTION        2.02          0.853        1.067
  YS02001793           JUNCTION        2.12          1.225        1.375
  
  
  *********************
  Node Flooding Summary
  *********************
  
  Flooding refers to all water that overflows a node, whether it ponds or not.
  --------------------------------------------------------------------------
                                                             Total   Maximum
                                 Maximum   Time of Max       Flood    Ponded
                        Hours       Rate    Occurrence      Volume     Depth
  Node                 Flooded       LPS   days hr:min    10^6 ltr    Meters
  --------------------------------------------------------------------------
  WS02006256              0.01    406.11      0  00:00       0.001     0.000
  YS02001779              2.57    478.46      0  03:19       1.359     0.000
  YS02001907              0.38    275.29      0  02:58       0.212     0.000
  YS02001629              0.01      1.75      0  02:46       0.000     0.000
  YS02001644              4.25   1198.80      0  03:19       6.819     0.000
  YS02001649              0.04     39.23      0  02:51       0.001     0.000
  YS02001625              0.87    170.36      0  03:01       0.249     0.000
  YS02001790              0.01    164.01      0  02:14       0.000     0.000
  JK-storage              1.86    965.90      0  03:00       4.829     0.000
  XR-storage              4.48    405.04      0  03:01       3.131     0.000
  
  
  **********************
  Storage Volume Summary
  **********************
  
  --------------------------------------------------------------------------------------------------
                         Average     Avg  Evap Exfil       Maximum     Max    Time of Max    Maximum
                          Volume    Pcnt  Pcnt  Pcnt        Volume    Pcnt     Occurrence    Outflow
  Storage Unit           1000 m3    Full  Loss  Loss       1000 m3    Full    days hr:min        LPS
  --------------------------------------------------------------------------------------------------
  JK-storage               0.109      37     0     0         0.291     100       0  02:15     600.00
  CC-storage               3.190      20     0     0         3.934      25       0  03:17     400.00
  XR-storage               0.853      92     0     0         0.926     100       0  02:55     379.99
  
  
  ***********************
  Outfall Loading Summary
  ***********************
  
  -----------------------------------------------------------
                         Flow       Avg       Max       Total
                         Freq      Flow      Flow      Volume
  Outfall Node           Pcnt       LPS       LPS    10^6 ltr
  -----------------------------------------------------------
  WSC                   99.99    505.16    758.60      13.344
  3                     70.97    247.78    597.65       3.089
  4                     20.25     35.03     85.83       0.143
  5                      0.00      0.00      0.00       0.000
  -----------------------------------------------------------
  System                47.80    787.97   1141.50      16.576
  
  
  ********************
  Link Flow Summary
  ********************
  
  -----------------------------------------------------------------------------
                                 Maximum  Time of Max   Maximum    Max/    Max/
                                  |Flow|   Occurrence   |Veloc|    Full    Full
  Link                 Type          LPS  days hr:min     m/sec    Flow   Depth
  -----------------------------------------------------------------------------
  WS02003066WSF200     CONDUIT    449.85     0  03:08      2.65    0.08    0.21
  WS02006287WS02006284 CONDUIT    375.46     0  03:02      1.98    0.17    0.29
  WS02006284WS02006280 CONDUIT    375.57     0  03:02      2.22    0.16    0.27
  WS02006280WS02006229 CONDUIT    375.60     0  03:02      3.58    0.08    0.19
  WS02006229WS02006228 CONDUIT    444.93     0  03:02      0.89    1.47    1.00
  WS02006256WS02006235 CONDUIT    177.52     0  00:01      2.73    1.88    1.00
  WS02006253WS02006251 CONDUIT     80.93     0  03:01      0.62    0.24    0.89
  WS02006252WS02006251 CONDUIT    400.55     0  07:49      3.19    1.47    1.00
  WS02006251WS02006249 CONDUIT    400.53     0  07:50      1.15    1.15    0.86
  WS02006249WS02006248 CONDUIT    333.88     0  07:10      1.08    1.83    0.82
  WS02006248WS02006247 CONDUIT    330.05     0  07:10      1.03    0.72    0.85
  WS02006247WS02006245 CONDUIT    326.47     0  07:40      1.00    2.59    0.89
  WS02006245WS02006243 CONDUIT    323.37     0  07:41      1.07    0.96    0.90
  WS02006243WS02006242 CONDUIT    318.58     0  07:41      0.94    0.68    0.97
  WS02006242WS02006240 CONDUIT    316.65     0  07:42      0.85    1.26    0.99
  WS02006240WS02006239 CONDUIT    314.85     0  07:43      0.93    0.99    1.00
  WS02006239WS02006238 CONDUIT    314.69     0  07:50      0.82    1.01    1.00
  WS02006238WS02006235 CONDUIT    314.69     0  07:49      1.32    0.70    1.00
  WS02006235WS02006234 CONDUIT    392.12     0  05:31      1.03    4.14    0.98
  WS02006234WS02006232 CONDUIT    390.00     0  05:31      1.17    0.79    1.00
  WS02006232WS02006231 CONDUIT    389.97     0  04:31      1.06    0.82    0.92
  WS02006231WS02006230 CONDUIT    388.65     0  04:32      1.32    5.90    0.77
  WS02006230WS02006229 CONDUIT    398.62     0  04:33      1.04    8.87    1.00
  WS02006228WS02006109 CONDUIT    444.92     0  03:03      0.89    1.94    1.00
  WS02006116WS02004401 CONDUIT    453.72     0  03:04      0.70    0.63    0.77
  WS02006115WS02006116 CONDUIT    454.56     0  03:03      0.80    0.58    0.69
  WS02006113WS02006111 CONDUIT    459.20     0  03:03      2.31    0.55    0.42
  WS02006112WS02006115 CONDUIT    455.70     0  03:03      0.67    0.27    0.82
  WS02006111WS02006112 CONDUIT    447.52     0  03:04      1.28    0.21    0.66
  WS02006110WS02006113 CONDUIT    446.22     0  03:03      1.10    0.41    0.76
  WS02006109WS02006110 CONDUIT    446.15     0  03:03      0.90    0.86    0.96
  WS02004411WS02004412 CONDUIT    450.44     0  03:07      0.85    0.64    0.64
  WS02004401WS02004402 CONDUIT    453.32     0  03:04      0.67    0.54    0.80
  WS02004413WS02003067 CONDUIT    449.82     0  03:08      1.01    0.19    0.55
  WS02004412WS02004413 CONDUIT    450.01     0  03:07      0.74    0.30    0.73
  WS02004410WS02004411 CONDUIT    451.05     0  03:06      0.87    0.62    0.63
  WS02004409WS02004410 CONDUIT    451.67     0  03:06      0.90    0.58    0.61
  WS02004407WS02004409 CONDUIT    452.47     0  03:06      1.38    0.16    0.44
  WS02004406WS02004407 CONDUIT    452.51     0  03:05      0.94    0.20    0.59
  WS02004405WS02004406 CONDUIT    452.57     0  03:05      0.61    0.89    0.90
  WS02004404WS02004405 CONDUIT    452.58     0  03:05      0.61    4.43    0.90
  WS02004403WS02004404 CONDUIT    452.55     0  03:05      0.62    0.33    0.87
  WS02004402WS02004403 CONDUIT    452.77     0  03:05      0.66    0.65    0.82
  WS02004139WS02001211 CONDUIT    373.39     0  04:20      0.69    0.47    0.57
  WS02004138WS02004139 CONDUIT    379.15     0  04:20      2.94    0.08    0.42
  WS02003067WS02003066 CONDUIT    449.86     0  03:08      1.09    0.14    0.39
  WS02001213WS02003059 CONDUIT    374.92     0  04:21      0.64    0.62    0.71
  WS02001212WS02001213 CONDUIT    375.09     0  04:21      1.19    0.58    0.42
  WS02001211WS02001212 CONDUIT    376.27     0  04:20      0.75    0.29    0.61
  WS02003072WS02003073 CONDUIT    756.81     0  03:10      1.60    1.63    0.44
  WS02003069WS02003072 CONDUIT    756.81     0  03:10      1.51    0.36    0.45
  WS02003060WS02003069 CONDUIT    756.54     0  03:09      1.77    0.30    0.40
  WS02003059WS02003060 CONDUIT    375.33     0  04:22      0.82    0.25    0.60
  HS02004901HS02004770 CONDUIT     17.70     0  03:01      0.07    0.07    0.39
  HS02004876HS02004881 CONDUIT     71.90     0  03:01      0.92    0.76    0.11
  HS02004870HS02004876 CONDUIT     58.04     0  03:01      0.63    0.04    0.13
  HS02004842HS02004848 CONDUIT     11.42     0  03:01      0.05    0.01    0.30
  HS02004837HS02004842 CONDUIT     11.95     0  03:02      0.41    0.01    0.32
  HS02004830HS02004837 CONDUIT     41.69     0  03:01      0.56    0.04    0.11
  HS02004824HS02004830 CONDUIT     41.67     0  03:01      0.58    0.05    0.10
  HS02004817HS02004824 CONDUIT     81.59     0  03:01      0.25    0.04    0.47
  HS02004770HS02004777 CONDUIT     90.21     0  03:01      0.32    0.16    0.41
  HS02004799HS02004480 CONDUIT    226.98     0  03:01      0.78    0.29    0.42
  HS02004792HS02004799 CONDUIT    206.61     0  03:01      0.88    0.13    0.33
  HS02004788HS02004792 CONDUIT    118.95     0  03:01      1.01    0.08    0.17
  HS02004785HS02004788 CONDUIT     89.52     0  03:02      0.66    0.67    0.19
  HS02004777HS02004785 CONDUIT     89.64     0  03:01      0.38    0.11    0.33
  HS02004480HS02004478 CONDUIT    269.13     0  03:01      1.20    1.13    0.32
  HS02004479HS02004480 CONDUIT     44.18     0  03:02      0.23    0.04    0.40
  HS02004862HS02004870 CONDUIT     44.23     0  03:01      0.64    0.05    0.10
  HS02004848HS02004852 CONDUIT     20.44     0  03:01      0.44    0.02    0.07
  HS02004856HS02004862 CONDUIT     30.57     0  03:01      0.47    0.03    0.09
  HS02004852HS02004856 CONDUIT     20.26     0  03:01      0.24    0.02    0.12
  HS02004802HS02004478 CONDUIT    106.59     0  03:02      0.45    0.09    0.35
  HS02004478WS02006287 CONDUIT    375.28     0  03:01      1.68    0.11    0.25
  HS02004817HS02004807 CONDUIT     82.19     0  03:01      0.19    0.05    0.62
  HS02004807HS02004802 CONDUIT    106.49     0  03:01      0.38    0.20    0.40
  YS02001759YS02001757 CONDUIT    610.10     0  02:50      0.78    0.43    1.00
  YS02001762YS02001759 CONDUIT    311.64     0  02:50      0.40    0.36    1.00
  YS02001765YS02001762 CONDUIT    311.38     0  02:50      0.40    0.29    1.00
  YS02001770YS02001767 CONDUIT    309.60     0  02:50      0.39    1.23    1.00
  YS02001774YS02001770 CONDUIT    478.79     0  03:20      0.61    0.31    1.00
  YS02001779YS02001774 CONDUIT    478.64     0  03:19      0.61    0.24    1.00
  YS02001649YS02001757 CONDUIT    872.76     0  02:47      1.11    0.53    1.00
  YS02001767YS02001765 CONDUIT    310.92     0  02:50      0.40    0.39    1.00
  YS02006561YS02001783 CONDUIT    964.69     0  03:00      1.96    0.50    1.00
  YS02001783YS02001784 CONDUIT    964.57     0  03:00      1.92    1.33    1.00
  YS02001784YS02001785 CONDUIT    965.55     0  03:00      1.92    2.25    1.00
  YS02001788YS02001790 CONDUIT    965.56     0  03:00      2.04    0.71    1.00
  YS02001790YS02001791 CONDUIT    965.56     0  03:01      2.42    1.05    1.00
  YS02001791YS02001793 CONDUIT    966.06     0  03:01      4.78    0.41    1.00
  YS02001910YS02001907 CONDUIT    430.90     0  02:54      0.55    0.24    1.00
  YS02001786YS02001788 CONDUIT    965.33     0  03:00      2.03    1.86    1.00
  YS02001915YS02001910 CONDUIT    431.08     0  02:54      0.55    0.21    1.00
  YS02001918YS02001915 CONDUIT    196.89     0  02:54      0.44    0.11    1.00
  YS02001923YS02001920 CONDUIT    194.03     0  02:54      0.68    0.09    1.00
  YS02001926YS02001923 CONDUIT    209.22     0  02:54      0.79    0.30    0.88
  YS02001929YS02001926 CONDUIT    157.99     0  02:59      0.84    0.08    0.78
  YS02001920YS02001918 CONDUIT    196.50     0  02:54      0.67    0.19    1.00
  YS02001629YS02163301 CONDUIT    200.06     0  02:46      0.25    0.25    1.00
  YS02001619YS02001622 CONDUIT    257.80     0  03:01      0.61    0.38    1.00
  YS02001622YS02001625 CONDUIT    257.53     0  03:01      0.33    0.14    1.00
  YS02001625YS02001629 CONDUIT    198.38     0  02:46      0.25    0.09    1.00
  YS02163301YS02001633 CONDUIT    200.59     0  02:46      0.26    0.19    1.00
  YS02163601YS02164001 CONDUIT    416.24     0  02:46      0.53    0.37    1.00
  YS02164001YS02001641 CONDUIT    414.74     0  02:47      0.53    0.57    1.00
  YS02001641YS02001644 CONDUIT    414.20     0  02:46      0.53    1.34    1.00
  YS02001647YS02001649 CONDUIT    627.98     0  02:47      0.80    0.33    1.00
  YS02006553YS02006556 CONDUIT    667.03     0  03:17      0.85    0.57    1.00
  YS02006556YS02006558 CONDUIT    668.40     0  03:17      0.85    0.53    1.00
  YSB6556YSB1171       CONDUIT     24.82     0  03:03      0.09    0.03    0.67
  YS02001907YS02006553 CONDUIT    667.71     0  03:17      0.74    0.79    1.00
  YS02006558YS02006561 CONDUIT    964.50     0  02:59      3.41    2.13    1.00
  YS02001633YS02163601 CONDUIT    416.22     0  02:46      0.53    0.44    1.00
  YS02001644YS02001647 CONDUIT    628.81     0  02:47      0.80    0.37    1.00
  YS02001745YS02001748 CONDUIT    474.92     0  02:40      1.48    0.18    0.95
  YS02001748YS02001751 CONDUIT    309.94     0  03:01      1.05    0.16    1.00
  YS02001751YS02001754 CONDUIT    309.42     0  03:01      0.88    0.15    1.00
  YS02001754YS02001757 CONDUIT    309.88     0  03:01      0.39    0.12    1.00
  YS02001882YS02001884 CONDUIT     12.71     0  02:45      0.09    0.01    1.00
  YS02001884YS02001887 CONDUIT     22.07     0  02:44      0.05    0.03    1.00
  YS02001890YS02001895 CONDUIT    453.70     0  03:01      0.58    0.21    1.00
  YS02001895YS02001898 CONDUIT    454.18     0  03:01      0.58    0.79    1.00
  YS02001898YS02001901 CONDUIT    453.83     0  03:01      0.58    0.29    1.00
  YS02001901YS02001904 CONDUIT    454.21     0  03:01      0.58    0.70    1.00
  YS02001904YS02001907 CONDUIT    454.53     0  03:01      0.58    0.16    1.00
  YS02001887YS02001890 CONDUIT    453.78     0  03:01      0.58    0.78    1.00
  YS02001652YS02001649 CONDUIT    369.42     0  03:02      0.50    0.18    1.00
  YS02001655YS02001652 CONDUIT    367.36     0  03:02      0.93    0.18    1.00
  YS02001658YS02001655 CONDUIT    366.29     0  03:02      1.21    0.16    1.00
  YS02001661YS02001658 CONDUIT    601.55     0  02:36      1.56    0.24    1.00
  YS02001664YS02001661 CONDUIT    661.81     0  02:50      1.49    0.21    0.74
  YSB1154YSB6556       CONDUIT     24.92     0  03:01      0.18    0.04    0.56
  YSB1174YSB1171       CONDUIT     18.78     0  03:01      0.07    0.03    0.68
  YSB1171HS02004479    CONDUIT     42.82     0  03:02      0.54    0.03    0.53
  HS02004881HS02006253 CONDUIT     79.16     0  03:01      2.19    0.02    0.21
  YS02001793JiankangQianchi CONDUIT    966.03     0  03:00     12.57    0.08    1.00
  YS02001757CaochengTiaoxuchi CONDUIT   1677.41     0  02:48      2.17    0.74    1.00
  WSF200WS02003060     CONDUIT    449.93     0  03:08      1.87    0.10    0.30
  1                    CONDUIT    758.60     0  03:11      3.09    0.26    0.35
  2                    CONDUIT     85.83     0  07:50      4.64    0.21    0.31
  3                    CONDUIT    597.65     0  00:00     10.05    0.95    0.86
  4                    CONDUIT      0.00     0  00:00      0.00    0.00    0.00
  CC-Pump-1            PUMP       200.00     0  04:20              1.00
  CC-Pump-2            PUMP       200.00     0  03:40              1.00
  JK-Pump-1            PUMP       300.00     0  00:00              1.00
  JK-Pump-2            PUMP       300.00     0  00:00              1.00
  XR-Pump-1            PUMP        95.00     0  00:40              1.00
  XR-Pump-2            PUMP        95.00     0  00:20              1.00
  XR-Pump-3            PUMP        95.00     0  00:00              1.00
  XR-Pump-4            PUMP        95.00     0  00:00              1.00
  
  
  ***************************
  Flow Classification Summary
  ***************************
  
  -------------------------------------------------------------------------------------
                      Adjusted    ---------- Fraction of Time in Flow Class ---------- 
                       /Actual         Up    Down  Sub   Sup   Up    Down  Norm  Inlet 
  Conduit               Length    Dry  Dry   Dry   Crit  Crit  Crit  Crit  Ltd   Ctrl  
  -------------------------------------------------------------------------------------
  WS02003066WSF200        1.00   0.07  0.00  0.00  0.00  0.93  0.00  0.00  0.75  0.00
  WS02006287WS02006284    1.00   0.04  0.01  0.00  0.71  0.24  0.00  0.00  0.65  0.00
  WS02006284WS02006280    1.00   0.04  0.00  0.00  0.00  0.00  0.00  0.96  0.00  0.00
  WS02006280WS02006229    1.00   0.04  0.00  0.00  0.00  0.00  0.00  0.96  0.00  0.00
  WS02006229WS02006228    1.00   0.00  0.00  0.00  0.98  0.00  0.00  0.02  0.00  0.00
  WS02006256WS02006235    1.00   0.00  0.00  0.00  1.00  0.00  0.00  0.00  0.00  0.00
  WS02006253WS02006251    1.00   0.03  0.01  0.00  0.96  0.00  0.00  0.00  0.00  0.00
  WS02006252WS02006251    1.00   0.07  0.00  0.00  0.00  0.00  0.93  0.00  0.00  0.00
  WS02006251WS02006249    1.00   0.00  0.00  0.00  1.00  0.00  0.00  0.00  0.26  0.00
  WS02006249WS02006248    1.00   0.00  0.02  0.00  0.89  0.00  0.09  0.00  0.00  0.00
  WS02006248WS02006247    1.00   0.02  0.00  0.00  0.97  0.00  0.00  0.01  0.16  0.00
  WS02006247WS02006245    1.00   0.02  0.00  0.00  0.96  0.00  0.00  0.02  0.00  0.00
  WS02006245WS02006243    1.00   0.02  0.00  0.00  0.93  0.00  0.00  0.05  0.02  0.00
  WS02006243WS02006242    1.00   0.01  0.01  0.00  0.98  0.00  0.00  0.00  0.32  0.00
  WS02006242WS02006240    1.00   0.01  0.00  0.00  0.99  0.00  0.00  0.00  0.00  0.00
  WS02006240WS02006239    1.00   0.00  0.00  0.00  0.95  0.00  0.00  0.04  0.02  0.00
  WS02006239WS02006238    1.00   0.00  0.00  0.00  1.00  0.00  0.00  0.00  0.09  0.00
  WS02006238WS02006235    1.00   0.00  0.00  0.00  1.00  0.00  0.00  0.00  0.00  0.00
  WS02006235WS02006234    1.00   0.00  0.00  0.00  0.95  0.00  0.05  0.00  0.00  0.00
  WS02006234WS02006232    1.00   0.00  0.00  0.00  1.00  0.00  0.00  0.00  0.06  0.00
  WS02006232WS02006231    1.00   0.00  0.00  0.00  0.99  0.00  0.01  0.00  0.00  0.00
  WS02006231WS02006230    1.00   0.00  0.00  0.00  0.51  0.00  0.48  0.00  0.00  0.00
  WS02006230WS02006229    1.00   0.00  0.00  0.00  0.98  0.00  0.00  0.02  0.01  0.00
  WS02006228WS02006109    1.00   0.00  0.00  0.00  1.00  0.00  0.00  0.00  0.00  0.00
  WS02006116WS02004401    1.00   0.02  0.00  0.00  0.98  0.00  0.00  0.00  0.00  0.00
  WS02006115WS02006116    1.00   0.02  0.00  0.00  0.97  0.00  0.00  0.01  0.01  0.00
  WS02006113WS02006111    1.00   0.02  0.00  0.00  0.00  0.98  0.00  0.00  0.15  0.00
  WS02006112WS02006115    1.00   0.02  0.00  0.00  0.98  0.00  0.00  0.00  0.00  0.00
  WS02006111WS02006112    1.00   0.02  0.00  0.00  0.98  0.00  0.00  0.00  0.98  0.00
  WS02006110WS02006113    1.00   0.02  0.00  0.00  0.98  0.00  0.00  0.00  0.00  0.00
  WS02006109WS02006110    1.00   0.00  0.02  0.00  0.98  0.00  0.00  0.00  0.00  0.00
  WS02004411WS02004412    1.00   0.05  0.00  0.00  0.95  0.00  0.00  0.00  0.00  0.00
  WS02004401WS02004402    1.00   0.02  0.00  0.00  0.98  0.00  0.00  0.00  0.00  0.00
  WS02004413WS02003067    1.00   0.06  0.01  0.00  0.00  0.00  0.93  0.00  0.00  0.00
  WS02004412WS02004413    1.00   0.06  0.00  0.00  0.94  0.00  0.00  0.00  0.01  0.00
  WS02004410WS02004411    1.00   0.05  0.00  0.00  0.95  0.00  0.00  0.00  0.00  0.00
  WS02004409WS02004410    1.00   0.05  0.00  0.00  0.95  0.00  0.00  0.00  0.00  0.00
  WS02004407WS02004409    1.00   0.05  0.00  0.00  0.94  0.00  0.00  0.00  0.80  0.00
  WS02004406WS02004407    1.00   0.00  0.05  0.00  0.95  0.00  0.00  0.00  0.00  0.00
  WS02004405WS02004406    1.00   0.00  0.00  0.00  1.00  0.00  0.00  0.00  0.02  0.00
  WS02004404WS02004405    1.00   0.00  0.00  0.00  1.00  0.00  0.00  0.00  0.00  0.00
  WS02004403WS02004404    1.00   0.00  0.02  0.00  0.98  0.00  0.00  0.00  0.02  0.00
  WS02004402WS02004403    1.00   0.02  0.00  0.00  0.98  0.00  0.00  0.00  0.00  0.00
  WS02004139WS02001211    1.00   0.00  0.00  0.00  0.99  0.00  0.01  0.00  0.00  0.00
  WS02004138WS02004139    1.00   0.00  0.00  0.00  0.98  0.01  0.00  0.00  1.00  0.00
  WS02003067WS02003066    1.00   0.07  0.00  0.00  0.93  0.00  0.00  0.00  0.00  0.00
  WS02001213WS02003059    1.00   0.00  0.01  0.00  0.99  0.00  0.00  0.00  0.00  0.00
  WS02001212WS02001213    1.00   0.01  0.00  0.00  0.79  0.00  0.20  0.00  0.00  0.00
  WS02001211WS02001212    1.00   0.00  0.01  0.00  0.99  0.00  0.00  0.00  0.00  0.00
  WS02003072WS02003073    1.00   0.00  0.00  0.00  0.00  0.00  0.00  1.00  0.00  0.00
  WS02003069WS02003072    1.00   0.00  0.00  0.00  0.99  0.01  0.00  0.00  0.25  0.00
  WS02003060WS02003069    1.00   0.00  0.00  0.00  0.99  0.01  0.00  0.00  0.07  0.00
  WS02003059WS02003060    1.00   0.00  0.00  0.00  0.99  0.01  0.00  0.00  0.01  0.00
  HS02004901HS02004770    1.00   0.04  0.00  0.00  0.96  0.00  0.00  0.00  0.00  0.00
  HS02004876HS02004881    1.00   0.02  0.00  0.00  0.94  0.04  0.00  0.00  0.00  0.00
  HS02004870HS02004876    1.00   0.01  0.00  0.00  0.99  0.00  0.00  0.00  0.95  0.00
  HS02004842HS02004848    1.00   0.00  0.04  0.00  0.96  0.00  0.00  0.00  0.58  0.00
  HS02004837HS02004842    1.00   0.00  0.00  0.00  0.99  0.01  0.00  0.00  0.11  0.00
  HS02004830HS02004837    1.00   0.00  0.00  0.00  1.00  0.00  0.00  0.00  0.99  0.00
  HS02004824HS02004830    1.00   0.00  0.00  0.00  1.00  0.00  0.00  0.00  0.00  0.00
  HS02004817HS02004824    1.00   0.00  0.00  0.00  1.00  0.00  0.00  0.00  1.00  0.00
  HS02004770HS02004777    1.00   0.00  0.04  0.00  0.96  0.00  0.00  0.00  0.03  0.00
  HS02004799HS02004480    1.00   0.00  0.02  0.00  0.95  0.00  0.03  0.00  0.00  0.00
  HS02004792HS02004799    1.00   0.00  0.00  0.00  0.98  0.02  0.00  0.00  0.98  0.00
  HS02004788HS02004792    1.00   0.00  0.00  0.00  0.98  0.02  0.00  0.00  0.98  0.00
  HS02004785HS02004788    1.00   0.00  0.00  0.00  1.00  0.00  0.00  0.00  0.00  0.00
  HS02004777HS02004785    1.00   0.00  0.00  0.00  1.00  0.00  0.00  0.00  0.14  0.00
  HS02004480HS02004478    1.00   0.04  0.00  0.00  0.78  0.00  0.00  0.17  0.00  0.00
  HS02004479HS02004480    1.00   0.02  0.00  0.00  0.98  0.00  0.00  0.00  0.13  0.00
  HS02004862HS02004870    1.00   0.00  0.00  0.00  1.00  0.00  0.00  0.00  0.05  0.00
  HS02004848HS02004852    1.00   0.04  0.00  0.00  0.96  0.00  0.00  0.00  0.61  0.00
  HS02004856HS02004862    1.00   0.00  0.05  0.00  0.95  0.00  0.00  0.00  0.80  0.00
  HS02004852HS02004856    1.00   0.04  0.00  0.00  0.96  0.00  0.00  0.00  0.85  0.00
  HS02004802HS02004478    1.00   0.04  0.00  0.00  0.96  0.00  0.00  0.00  0.03  0.00
  HS02004478WS02006287    1.00   0.05  0.00  0.00  0.82  0.13  0.00  0.00  0.66  0.00
  HS02004817HS02004807    1.00   0.00  0.04  0.00  0.96  0.00  0.00  0.00  0.01  0.00
  HS02004807HS02004802    1.00   0.04  0.00  0.00  0.96  0.00  0.00  0.00  0.00  0.00
  YS02001759YS02001757    1.00   0.00  0.00  0.00  1.00  0.00  0.00  0.00  0.16  0.00
  YS02001762YS02001759    1.00   0.00  0.00  0.00  1.00  0.00  0.00  0.00  0.04  0.00
  YS02001765YS02001762    1.00   0.00  0.00  0.00  1.00  0.00  0.00  0.00  0.16  0.00
  YS02001770YS02001767    1.00   0.00  0.00  0.00  1.00  0.00  0.00  0.00  0.00  0.00
  YS02001774YS02001770    1.00   0.00  0.04  0.00  0.96  0.00  0.00  0.00  0.04  0.00
  YS02001779YS02001774    1.00   0.00  0.00  0.00  1.00  0.00  0.00  0.00  0.21  0.00
  YS02001649YS02001757    1.00   0.00  0.00  0.00  1.00  0.00  0.00  0.00  0.17  0.00
  YS02001767YS02001765    1.00   0.00  0.00  0.00  1.00  0.00  0.00  0.00  0.00  0.00
  YS02006561YS02001783    1.00   0.06  0.00  0.00  0.21  0.73  0.00  0.00  0.53  0.00
  YS02001783YS02001784    1.00   0.00  0.06  0.00  0.94  0.00  0.00  0.00  0.01  0.00
  YS02001784YS02001785    1.00   0.00  0.00  0.00  1.00  0.00  0.00  0.00  0.20  0.00
  YS02001788YS02001790    1.00   0.00  0.00  0.00  0.29  0.71  0.00  0.00  0.48  0.00
  YS02001790YS02001791    1.00   0.00  0.00  0.00  0.26  0.74  0.00  0.00  0.49  0.00
  YS02001791YS02001793    1.00   0.00  0.00  0.00  0.29  0.71  0.00  0.00  0.03  0.00
  YS02001910YS02001907    1.00   0.00  0.00  0.00  0.98  0.00  0.00  0.02  0.13  0.00
  YS02001786YS02001788    1.00   0.00  0.00  0.00  0.28  0.72  0.00  0.00  0.00  0.00
  YS02001915YS02001910    1.00   0.00  0.00  0.00  0.99  0.01  0.00  0.00  0.18  0.00
  YS02001918YS02001915    1.00   0.00  0.01  0.00  0.99  0.00  0.00  0.00  0.58  0.00
  YS02001923YS02001920    1.00   0.00  0.00  0.00  1.00  0.00  0.00  0.00  0.85  0.00
  YS02001926YS02001923    1.00   0.00  0.03  0.00  0.06  0.00  0.91  0.00  0.00  0.00
  YS02001929YS02001926    1.00   0.00  0.04  0.00  0.96  0.00  0.00  0.00  0.78  0.00
  YS02001920YS02001918    1.00   0.00  0.01  0.00  0.99  0.00  0.00  0.00  0.00  0.00
  YS02001629YS02163301    1.00   0.05  0.00  0.00  0.95  0.00  0.00  0.00  0.00  0.00
  YS02001619YS02001622    1.00   0.04  0.00  0.00  0.96  0.00  0.00  0.00  0.00  0.00
  YS02001622YS02001625    1.00   0.04  0.00  0.00  0.96  0.00  0.00  0.00  0.07  0.00
  YS02001625YS02001629    1.00   0.04  0.02  0.00  0.93  0.00  0.01  0.00  0.00  0.00
  YS02163301YS02001633    1.00   0.00  0.05  0.00  0.95  0.00  0.00  0.00  0.00  0.00
  YS02163601YS02164001    1.00   0.00  0.03  0.00  0.97  0.00  0.00  0.00  0.00  0.00
  YS02164001YS02001641    1.00   0.01  0.02  0.00  0.97  0.00  0.00  0.00  0.06  0.00
  YS02001641YS02001644    1.00   0.00  0.01  0.00  0.99  0.00  0.00  0.00  0.00  0.00
  YS02001647YS02001649    1.00   0.00  0.05  0.00  0.95  0.00  0.00  0.00  0.01  0.00
  YS02006553YS02006556    1.00   0.02  0.00  0.00  0.98  0.00  0.00  0.00  0.03  0.00
  YS02006556YS02006558    1.00   0.00  0.01  0.00  0.99  0.00  0.00  0.00  0.00  0.00
  YSB6556YSB1171          1.00   0.02  0.02  0.00  0.96  0.00  0.00  0.00  0.00  0.00
  YS02001907YS02006553    1.00   0.00  0.02  0.00  0.98  0.00  0.00  0.00  0.00  0.00
  YS02006558YS02006561    1.00   0.06  0.00  0.00  0.10  0.85  0.00  0.00  0.48  0.00
  YS02001633YS02163601    1.00   0.00  0.01  0.00  0.99  0.00  0.00  0.00  0.16  0.00
  YS02001644YS02001647    1.00   0.00  0.05  0.00  0.95  0.00  0.00  0.00  0.00  0.00
  YS02001745YS02001748    1.00   0.00  0.00  0.00  0.90  0.01  0.00  0.09  0.04  0.00
  YS02001748YS02001751    1.00   0.00  0.00  0.00  0.97  0.03  0.00  0.00  0.15  0.00
  YS02001751YS02001754    1.00   0.00  0.00  0.00  0.94  0.00  0.00  0.06  0.02  0.00
  YS02001754YS02001757    1.00   0.00  0.00  0.00  0.99  0.01  0.00  0.00  0.20  0.00
  YS02001882YS02001884    1.00   0.05  0.00  0.00  0.95  0.00  0.00  0.00  0.00  0.00
  YS02001884YS02001887    1.00   0.03  0.01  0.00  0.96  0.00  0.00  0.00  0.00  0.00
  YS02001890YS02001895    1.00   0.00  0.05  0.00  0.95  0.00  0.00  0.00  0.00  0.00
  YS02001895YS02001898    1.00   0.05  0.00  0.00  0.94  0.00  0.01  0.00  0.00  0.00
  YS02001898YS02001901    1.00   0.05  0.00  0.00  0.95  0.00  0.00  0.00  0.02  0.00
  YS02001901YS02001904    1.00   0.05  0.00  0.00  0.95  0.00  0.00  0.00  0.00  0.00
  YS02001904YS02001907    1.00   0.00  0.05  0.00  0.95  0.00  0.00  0.00  0.00  0.00
  YS02001887YS02001890    1.00   0.00  0.00  0.00  0.98  0.00  0.02  0.00  0.00  0.00
  YS02001652YS02001649    1.00   0.00  0.00  0.00  1.00  0.00  0.00  0.00  0.18  0.00
  YS02001655YS02001652    1.00   0.00  0.00  0.00  0.94  0.00  0.00  0.06  0.02  0.00
  YS02001658YS02001655    1.00   0.00  0.04  0.00  0.93  0.03  0.00  0.00  0.11  0.00
  YS02001661YS02001658    1.00   0.04  0.00  0.00  0.90  0.06  0.00  0.00  0.06  0.00
  YS02001664YS02001661    1.00   0.04  0.00  0.00  0.90  0.06  0.00  0.00  0.21  0.00
  YSB1154YSB6556          1.00   0.04  0.00  0.00  0.96  0.00  0.00  0.00  0.02  0.00
  YSB1174YSB1171          1.00   0.03  0.01  0.00  0.97  0.00  0.00  0.00  0.00  0.00
  YSB1171HS02004479       1.00   0.02  0.00  0.00  0.97  0.00  0.00  0.00  0.11  0.00
  HS02004881HS02006253    1.00   0.03  0.00  0.00  0.64  0.03  0.00  0.30  0.45  0.00
  YS02001793JiankangQianchi    1.00   0.00  0.00  0.00  0.53  0.47  0.00  0.00  0.28  0.00
  YS02001757CaochengTiaoxuchi    1.00   0.00  0.07  0.00  0.93  0.00  0.00  0.00  0.00  0.00
  WSF200WS02003060        1.00   0.00  0.07  0.00  0.51  0.42  0.00  0.00  0.21  0.00
  1                       1.00   0.00  0.00  0.00  0.00  1.00  0.00  0.00  0.30  0.00
  2                       1.00   0.79  0.00  0.00  0.00  0.20  0.00  0.00  0.04  0.00
  3                       1.00   0.29  0.00  0.00  0.00  0.71  0.00  0.00  0.04  0.00
  4                       1.00   1.00  0.00  0.00  0.00  0.00  0.00  0.00  0.00  0.00
  
  
  *************************
  Conduit Surcharge Summary
  *************************
  
  ----------------------------------------------------------------------------
                                                           Hours        Hours 
                         --------- Hours Full --------   Above Full   Capacity
  Conduit                Both Ends  Upstream  Dnstream   Normal Flow   Limited
  ----------------------------------------------------------------------------
  WS02006229WS02006228        0.96      1.24      0.96      3.97         0.96
  WS02006256WS02006235        5.31      5.31      6.93      2.73         0.01
  WS02006252WS02006251        0.55      0.55      1.25      1.07         0.01
  WS02006251WS02006249        0.01      0.01      0.01      0.51         0.01
  WS02006249WS02006248        0.01      0.01      0.01      3.15         0.01
  WS02006247WS02006245        0.01      0.01      0.01      3.66         0.01
  WS02006243WS02006242        0.01      0.01      0.41      0.01         0.01
  WS02006242WS02006240        0.01      0.01      0.71      1.16         0.01
  WS02006240WS02006239        0.01      0.01      0.02      0.01         0.01
  WS02006239WS02006238        0.60      0.60      0.68      0.13         0.14
  WS02006238WS02006235        0.57      0.57      0.89      0.01         0.01
  WS02006235WS02006234        0.01      0.01      0.27      4.48         0.01
  WS02006234WS02006232        0.01      0.01      0.92      0.01         0.01
  WS02006232WS02006231        0.01      0.01      0.92      0.01         0.01
  WS02006231WS02006230        0.01      0.01      0.01      4.82         0.01
  WS02006230WS02006229        2.34      3.61      2.34      5.70         2.34
  WS02006228WS02006109        1.10      1.75      1.10      4.90         1.10
  WS02006111WS02006112        0.01      0.01      4.06      0.01         0.01
  WS02006110WS02006113        0.01      0.01      1.47      0.01         0.01
  WS02006109WS02006110        0.01      0.01      1.75      0.01         0.01
  WS02004404WS02004405        0.01      0.01      0.01      5.99         0.01
  WS02003072WS02003073        0.01      0.01      0.01      4.46         0.01
  HS02004480HS02004478        0.01      0.01      0.01      0.25         0.01
  YS02001759YS02001757        5.66      5.66      5.74      0.01         0.01
  YS02001762YS02001759        5.64      5.64      5.66      0.01         0.01
  YS02001765YS02001762        5.61      5.61      5.64      0.01         0.01
  YS02001770YS02001767        5.58      5.59      5.59      0.23         0.69
  YS02001774YS02001770        5.57      5.57      5.63      0.01         0.01
  YS02001779YS02001774        5.43      5.43      5.63      0.01         0.01
  YS02001649YS02001757        5.64      5.64      5.74      0.01         0.01
  YS02001767YS02001765        5.59      5.59      5.61      0.01         0.01
  YS02006561YS02001783        0.67      0.67      1.47      0.01         0.01
  YS02001783YS02001784        1.47      1.47      1.52      1.06         1.06
  YS02001784YS02001785        1.48      1.52      1.48      2.07         1.48
  YS02001788YS02001790        1.45      1.45      1.97      0.01         0.01
  YS02001790YS02001791        1.97      1.97      2.02      0.50         0.49
  YS02001791YS02001793        2.02      2.02      2.24      0.01         0.01
  YS02001910YS02001907        1.02      1.02      1.51      0.01         0.01
  YS02001786YS02001788        1.45      1.48      1.45      1.72         1.44
  YS02001915YS02001910        0.79      0.79      1.02      0.01         0.01
  YS02001918YS02001915        0.54      0.54      0.79      0.01         0.01
  YS02001923YS02001920        0.33      0.33      0.57      0.01         0.01
  YS02001920YS02001918        0.54      0.54      0.57      0.01         0.01
  YS02001629YS02163301        5.57      5.57      5.58      0.01         0.01
  YS02001619YS02001622        5.27      5.27      5.30      0.01         0.01
  YS02001622YS02001625        5.30      5.30      5.54      0.01         0.01
  YS02001625YS02001629        5.28      5.28      5.54      0.01         0.01
  YS02163301YS02001633        5.58      5.58      5.61      0.01         0.01
  YS02163601YS02164001        5.61      5.61      5.64      0.01         0.01
  YS02164001YS02001641        5.61      5.61      5.62      0.01         0.01
  YS02001641YS02001644        5.62      5.62      5.62      1.21         1.24
  YS02001647YS02001649        5.52      5.52      5.64      0.01         0.01
  YS02006553YS02006556        1.24      1.24      1.59      0.01         0.01
  YS02006556YS02006558        1.39      1.39      1.65      0.01         0.01
  YS02001907YS02006553        2.09      2.09      2.30      0.01         0.01
  YS02006558YS02006561        0.90      1.20      0.90      1.93         0.90
  YS02001633YS02163601        5.61      5.61      5.64      0.01         0.01
  YS02001644YS02001647        5.52      5.52      5.62      0.01         0.01
  YS02001745YS02001748        0.01      0.01      5.10      0.01         0.01
  YS02001748YS02001751        5.15      5.15      5.28      0.01         0.01
  YS02001751YS02001754        5.28      5.28      5.44      0.01         0.01
  YS02001754YS02001757        5.50      5.50      5.74      0.01         0.01
  YS02001882YS02001884        0.80      0.80      0.84      0.01         0.01
  YS02001884YS02001887        0.90      0.90      0.93      0.01         0.01
  YS02001890YS02001895        0.78      0.78      1.04      0.01         0.01
  YS02001895YS02001898        0.76      0.76      0.78      0.01         0.01
  YS02001898YS02001901        0.79      0.79      0.90      0.01         0.01
  YS02001901YS02001904        0.87      0.87      0.90      0.01         0.01
  YS02001904YS02001907        0.87      0.87      1.61      0.01         0.01
  YS02001887YS02001890        0.96      0.96      1.00      0.01         0.01
  YS02001652YS02001649        5.53      5.53      5.64      0.01         0.01
  YS02001655YS02001652        5.29      5.29      5.49      0.01         0.01
  YS02001658YS02001655        5.13      5.13      5.29      0.01         0.01
  YS02001661YS02001658        0.19      0.19      5.13      0.01         0.01
  YS02001664YS02001661        0.01      0.01      1.23      0.01         0.01
  YS02001793JiankangQianchi        2.12      2.12      3.40      0.01         0.01
  YS02001757CaochengTiaoxuchi        4.99      4.99      5.74      0.01         0.01
  3                           0.01      0.01      0.01      0.01         0.01
  
  
  ***************
  Pumping Summary
  ***************
  
  ---------------------------------------------------------------------------------------------------------
                                                  Min       Avg       Max     Total     Power    % Time Off
                        Percent   Number of      Flow      Flow      Flow    Volume     Usage    Pump Curve
  Pump                 Utilized   Start-Ups       LPS       LPS       LPS  10^6 ltr     Kw-hr    Low   High
  ---------------------------------------------------------------------------------------------------------
  CC-Pump-1               38.30           5      0.00    141.33    200.00     1.500      1.43    0.0    0.0
  CC-Pump-2               50.27           6      0.00    136.23    200.00     1.873      2.08    0.0   11.2
  JK-Pump-1               55.32           5      0.00    167.91    300.00     2.049     30.68    0.0    0.0
  JK-Pump-2               55.32           5      0.00    193.92    300.00     2.545     36.04    0.0    0.0
  XR-Pump-1               76.58           4      0.00     74.47     95.00     1.653     15.62    0.0    0.0
  XR-Pump-2               74.45           6      0.00     59.32     95.00     1.368     12.82    0.0    0.0
  XR-Pump-3               89.35           6      0.00     65.08     95.00     1.881     17.74    0.0    0.0
  XR-Pump-4               72.33          10      0.00     64.51     95.00     1.254      8.93    0.0    0.0
  

  Analysis begun on:  Wed Dec 22 10:40:22 2021
  Analysis ended on:  Wed Dec 22 10:40:26 2021
  Total elapsed time: 00:00:04