
  EPA STORM WATER MANAGEMENT MODEL - VERSION 5.1 (Build 5.3.0.dev0)
  --------------------------------------------------------------

  WARNING 04: minimum elevation drop used for Conduit WS02004404WS02004405
  WARNING 03: negative offset ignored for Link YS02001904YS02001907
  
  *********************************************************
  NOTE: The summary statistics displayed in this report are
  based on results found at every computational time step,  
  not just on results from each reporting time step.
  *********************************************************
  
  ****************
  Analysis Options
  ****************
  Flow Units ............... LPS
  Process Models:
    Rainfall/Runoff ........ YES
    RDII ................... NO
    Snowmelt ............... NO
    Groundwater ............ NO
    Flow Routing ........... YES
    Ponding Allowed ........ NO
    Water Quality .......... NO
  Infiltration Method ...... HORTON
  Flow Routing Method ...... DYNWAVE
  Surcharge Method ......... EXTRAN
  Starting Date ............ 08/28/2015 08:00:00
  Ending Date .............. 08/28/2015 15:50:00
  Antecedent Dry Days ...... 8.0
  Report Time Step ......... 00:01:00
  Wet Time Step ............ 00:01:00
  Dry Time Step ............ 00:01:00
  Routing Time Step ........ 5.00 sec
  Variable Time Step ....... YES
  Maximum Trials ........... 8
  Number of Threads ........ 4
  Head Tolerance ........... 0.001500 m
  
  
  **************************        Volume         Depth
  Runoff Quantity Continuity     hectare-m            mm
  **************************     ---------       -------
  Total Precipitation ......         5.556        12.164
  Evaporation Loss .........         0.000         0.000
  Infiltration Loss ........         1.427         3.124
  Surface Runoff ...........         3.072         6.726
  Final Storage ............         1.058         2.316
  Continuity Error (%) .....        -0.016
  
  
  **************************        Volume        Volume
  Flow Routing Continuity        hectare-m      10^6 ltr
  **************************     ---------     ---------
  Dry Weather Inflow .......         0.616         6.165
  Wet Weather Inflow .......         3.071        30.708
  Groundwater Inflow .......         0.000         0.000
  RDII Inflow ..............         0.000         0.000
  External Inflow ..........         0.102         1.024
  External Outflow .........         1.644        16.442
  Flooding Loss ............         1.627        16.272
  Evaporation Loss .........         0.000         0.000
  Exfiltration Loss ........         0.000         0.000
  Initial Stored Volume ....         0.076         0.761
  Final Stored Volume ......         0.632         6.316
  Continuity Error (%) .....        -0.965
  
  
  *************************
  Highest Continuity Errors
  *************************
  Node HS02004842 (16.24%)
  Node YS02001884 (12.12%)
  Node JK-storage (-4.01%)
  Node YSB1171 (3.12%)
  Node HS02004817 (2.99%)
  
  
  ***************************
  Time-Step Critical Elements
  ***************************
  Link WS02006252WS02006251 (40.38%)
  Link 3 (35.53%)
  Link WS02006280WS02006229 (12.06%)
  Link WS02006238WS02006235 (3.29%)
  Link YS02006556YS02006558 (1.30%)
  
  
  ********************************
  Highest Flow Instability Indexes
  ********************************
  Link WS02006113WS02006111 (48)
  Link YS02001619YS02001622 (38)
  Link YS02163301YS02001633 (38)
  Link YS02001629YS02163301 (38)
  Link YS02163601YS02164001 (37)
  
  
  *************************
  Routing Time Step Summary
  *************************
  Minimum Time Step           :     0.50 sec
  Average Time Step           :     1.01 sec
  Maximum Time Step           :     5.00 sec
  Percent in Steady State     :    -0.00
  Average Iterations per Step :     4.40
  Percent Not Converging      :    18.76
  
  
  ***************************
  Subcatchment Runoff Summary
  ***************************
  
  ------------------------------------------------------------------------------------------------------------------------------
                            Total      Total      Total      Total     Imperv       Perv      Total       Total     Peak  Runoff
                           Precip      Runon       Evap      Infil     Runoff     Runoff     Runoff      Runoff   Runoff   Coeff
  Subcatchment                 mm         mm         mm         mm         mm         mm         mm    10^6 ltr      LPS
  ------------------------------------------------------------------------------------------------------------------------------
  sub0                      12.16       0.00       0.00       0.85      10.05       0.00      10.05        0.01     1.91   0.826
  sub1                      12.16       0.00       0.00       1.34       9.56       0.00       9.56        0.06    14.15   0.786
  sub2                      12.16       0.00       0.00       4.50       6.75       0.00       6.75        0.06    13.75   0.555
  sub3                      12.16       0.00       0.00       4.50       6.71       0.00       6.71        0.15    32.07   0.552
  sub4                      12.16       0.00       0.00       1.34       9.40       0.00       9.40        0.20    40.20   0.773
  sub5                      12.16       0.00       0.00       0.85       9.99       0.00       9.99        0.11    25.19   0.822
  sub7                      12.16       0.00       0.00       1.09       9.81       0.00       9.81        0.03     7.55   0.807
  sub8                      12.16       0.00       0.00       1.09       9.80       0.00       9.80        0.06    14.17   0.806
  sub9                      12.16       0.00       0.00       1.09       9.80       0.00       9.80        0.05    10.64   0.806
  sub10                     12.16       0.00       0.00       0.97       9.89       0.00       9.89        0.11    24.40   0.813
  sub11                     12.16       0.00       0.00       0.97       9.91       0.00       9.91        0.12    26.15   0.815
  sub12                     12.16       0.00       0.00       1.58       9.39       0.00       9.39        0.08    19.06   0.772
  sub14                     12.16       0.00       0.00       1.09       9.80       0.00       9.80        0.09    21.02   0.805
  sub15                     12.16       0.00       0.00       3.65       7.53       0.00       7.53        0.13    29.11   0.619
  sub16                     12.16       0.00       0.00       4.01       7.23       0.00       7.23        0.08    17.47   0.594
  sub17                     12.16       0.00       0.00       3.89       7.34       0.00       7.34        0.06    14.47   0.603
  sub22                     12.16       0.00       0.00       5.23       6.14       0.00       6.14        0.39    88.27   0.505
  sub23                     12.16       0.00       0.00       4.50       6.79       0.00       6.79        0.32    73.89   0.558
  sub60                     12.16       0.00       0.00       1.46       7.71       0.00       7.71        2.34   297.17   0.634
  sub61                     12.16       0.00       0.00       2.07       7.87       0.00       7.87        2.43   359.80   0.647
  sub62                     12.16       0.00       0.00       0.97       8.55       0.00       8.55        2.63   372.87   0.703
  sub63                     12.16       0.00       0.00       3.53       6.89       0.00       6.89        2.09   327.80   0.567
  sub64                     12.16       0.00       0.00       1.82       7.40       0.00       7.40        2.25   282.66   0.608
  sub65                     12.16       0.00       0.00       1.58       7.52       0.00       7.52        2.31   287.20   0.618
  sub66                     12.16       0.00       0.00       3.53       6.36       0.00       6.36        1.95   257.27   0.523
  sub67                     12.16       0.00       0.00       0.97       9.05       0.00       9.05        2.79   452.90   0.744
  sub68                     12.16       0.00       0.00       1.70       8.28       0.00       8.28        2.55   391.99   0.681
  sub69                     12.16       0.00       0.00       1.82       8.61       0.00       8.61        2.01   355.79   0.708
  sub70                     12.16       8.79       0.00       7.03      11.43       0.10      11.53        2.64   335.00   0.550
  sub71                     12.16       0.00       0.00       0.97       8.31       0.00       8.31        1.96   263.63   0.683
  sub72                     12.16       0.00       0.00       0.85       6.56       0.00       6.56        1.34   129.40   0.540
  sub73                     12.16      11.23       0.00       7.88      12.47       0.08      12.54        2.95   300.52   0.536
  sub74                     12.16       0.00       0.00       9.12       2.57       0.00       2.57        1.03   189.59   0.211
  
  
  ******************
  Node Depth Summary
  ******************
  
  ---------------------------------------------------------------------------------
                                 Average  Maximum  Maximum  Time of Max    Reported
                                   Depth    Depth      HGL   Occurrence   Max Depth
  Node                 Type       Meters   Meters   Meters  days hr:min      Meters
  ---------------------------------------------------------------------------------
  WS02001211           JUNCTION     0.64     0.77     5.61     0  07:10        0.77
  WS02001212           JUNCTION     0.37     0.47     5.54     0  07:11        0.47
  WS02001213           JUNCTION     0.60     0.71     5.48     0  07:11        0.71
  WS02003069           JUNCTION     0.42     0.51     5.10     0  03:09        0.51
  WS02003072           JUNCTION     0.49     0.58     4.95     0  03:10        0.58
  WS02003073           JUNCTION     0.29     0.35     4.42     0  03:11        0.35
  WS02003060           JUNCTION     0.37     0.45     5.39     0  03:09        0.45
  WS02003066           JUNCTION     0.22     0.28     5.83     0  03:08        0.28
  WS02003059           JUNCTION     0.66     0.76     5.45     0  07:11        0.76
  WS02003067           JUNCTION     0.55     0.67     5.99     0  03:08        0.67
  WS02004401           JUNCTION     0.64     0.78     6.78     0  03:05        0.78
  WS02004402           JUNCTION     0.67     0.81     6.77     0  03:05        0.81
  WS02004403           JUNCTION     0.69     0.83     6.76     0  03:05        0.83
  WS02004404           JUNCTION     0.77     0.91     6.76     0  03:05        0.91
  WS02004406           JUNCTION     0.77     0.91     6.74     0  03:05        0.91
  WS02004409           JUNCTION     0.46     0.60     6.37     0  03:06        0.60
  WS02004410           JUNCTION     0.48     0.62     6.34     0  03:07        0.62
  WS02004411           JUNCTION     0.49     0.63     6.31     0  03:07        0.63
  WS02004412           JUNCTION     0.51     0.65     6.29     0  03:07        0.65
  WS02004413           JUNCTION     0.67     0.81     6.28     0  03:08        0.81
  WS02004405           JUNCTION     0.76     0.90     6.75     0  03:05        0.90
  WS02006109           JUNCTION     0.72     0.87     7.49     0  03:02        0.87
  WS02006110           JUNCTION     0.72     0.85     7.43     0  03:03        0.85
  WS02006111           JUNCTION     0.21     0.26     6.97     0  03:04        0.26
  WS02006112           JUNCTION     0.80     0.97     6.85     0  03:04        0.97
  WS02006113           JUNCTION     0.32     0.41     7.30     0  03:03        0.41
  WS02006115           JUNCTION     0.53     0.68     6.82     0  03:04        0.68
  WS02006116           JUNCTION     0.61     0.76     6.80     0  03:05        0.76
  WS02006230           JUNCTION     0.67     0.86     7.61     0  04:32        0.86
  WS02006231           JUNCTION     0.43     0.59     7.72     0  05:31        0.59
  WS02006232           JUNCTION     0.56     0.75     7.78     0  05:30        0.75
  WS02006234           JUNCTION     0.48     0.70     7.86     0  05:30        0.70
  WS02006235           JUNCTION     0.51     0.74     7.91     0  05:30        0.74
  WS02006238           JUNCTION     0.53     0.77     7.92     0  05:30        0.77
  WS02006240           JUNCTION     0.43     0.70     8.00     0  05:30        0.70
  WS02006242           JUNCTION     0.48     0.77     8.04     0  05:30        0.77
  WS02006243           JUNCTION     0.37     0.67     8.09     0  05:30        0.67
  WS02006245           JUNCTION     0.35     0.64     8.12     0  05:30        0.64
  WS02006247           JUNCTION     0.37     0.65     8.15     0  05:30        0.65
  WS02006248           JUNCTION     0.32     0.58     8.17     0  05:30        0.58
  WS02006249           JUNCTION     0.36     0.60     8.20     0  05:30        0.60
  WS02006239           JUNCTION     0.49     0.75     7.96     0  05:30        0.75
  WS02006251           JUNCTION     0.35     0.62     8.29     0  05:30        0.62
  WS02006252           JUNCTION     0.30     0.59     8.83     0  05:21        0.59
  WS02006253           JUNCTION     0.38     0.65     8.29     0  05:30        0.64
  WS02006256           JUNCTION     0.97     1.21     8.14     0  05:30        1.21
  WS02004138           JUNCTION     0.14     0.19     7.44     0  00:40        0.19
  WS02004407           JUNCTION     0.21     0.27     6.58     0  03:06        0.27
  WS02006228           JUNCTION     0.71     0.89     7.54     0  03:02        0.89
  WS02006229           JUNCTION     0.68     0.87     7.56     0  03:02        0.87
  WS02006280           JUNCTION     0.06     0.19     8.46     0  03:02        0.19
  WS02006284           JUNCTION     0.35     0.55     8.95     0  03:02        0.55
  WS02006287           JUNCTION     0.08     0.28     9.24     0  03:01        0.28
  WSF200               JUNCTION     0.20     0.28     5.51     0  03:08        0.28
  HS02004901           JUNCTION     0.11     0.28    10.10     0  03:01        0.28
  HS02004881           JUNCTION     0.01     0.04     9.07     0  03:01        0.04
  HS02004876           JUNCTION     0.03     0.12     9.15     0  03:01        0.12
  HS02004870           JUNCTION     0.01     0.06     9.35     0  03:01        0.06
  HS02004862           JUNCTION     0.01     0.07     9.46     0  03:01        0.07
  HS02004856           JUNCTION     0.07     0.13     9.55     0  03:01        0.13
  HS02004852           JUNCTION     0.01     0.05     9.56     0  03:01        0.05
  HS02004848           JUNCTION     0.01     0.05     9.65     0  03:01        0.05
  HS02004842           JUNCTION     0.33     0.38     9.65     0  03:01        0.38
  HS02004837           JUNCTION     0.03     0.07     9.65     0  03:01        0.07
  HS02004830           JUNCTION     0.04     0.08     9.55     0  03:01        0.08
  HS02004824           JUNCTION     0.02     0.06     9.46     0  03:01        0.06
  HS02004817           JUNCTION     0.42     0.60     9.44     0  03:01        0.60
  HS02004807           JUNCTION     0.11     0.27     9.44     0  03:01        0.27
  HS02004802           JUNCTION     0.15     0.30     9.43     0  03:01        0.30
  HS02004799           JUNCTION     0.10     0.33     9.54     0  03:01        0.33
  HS02004792           JUNCTION     0.02     0.14     9.66     0  03:01        0.14
  HS02004788           JUNCTION     0.02     0.10    10.00     0  03:01        0.10
  HS02004785           JUNCTION     0.03     0.17    10.07     0  03:01        0.17
  HS02004777           JUNCTION     0.13     0.30    10.10     0  03:01        0.30
  HS02004770           JUNCTION     0.10     0.27    10.10     0  03:01        0.27
  HS02004480           JUNCTION     0.06     0.26     9.50     0  03:01        0.26
  HS02004479           JUNCTION     0.10     0.30     9.50     0  03:01        0.30
  HS02004478           JUNCTION     0.05     0.18     9.41     0  03:01        0.18
  YS02001745           JUNCTION     0.73     0.91     8.42     0  03:19        0.90
  YS02001748           JUNCTION     1.12     1.39     8.46     0  02:40        1.34
  YS02001751           JUNCTION     1.31     1.55     8.43     0  03:19        1.54
  YS02001754           JUNCTION     1.56     1.82     8.43     0  03:19        1.81
  YS02001762           JUNCTION     1.75     2.03     8.43     0  03:09        2.02
  YS02001765           JUNCTION     1.71     1.98     8.43     0  03:09        1.96
  YS02001767           JUNCTION     1.67     1.93     8.42     0  03:16        1.92
  YS02001770           JUNCTION     1.67     1.91     8.40     0  03:17        1.90
  YS02001774           JUNCTION     1.73     1.97     8.39     0  03:13        1.97
  YS02001779           JUNCTION     1.48     1.68     8.37     0  02:48        1.68
  YS02001882           JUNCTION     0.43     1.62     8.34     0  02:53        1.61
  YS02001884           JUNCTION     0.52     1.71     8.33     0  02:53        1.70
  YS02001759           JUNCTION     1.79     2.07     8.43     0  03:16        2.06
  YS02001887           JUNCTION     0.60     1.79     8.33     0  02:53        1.78
  YS02001890           JUNCTION     0.63     1.81     8.32     0  02:53        1.80
  YS02001898           JUNCTION     0.40     1.55     8.29     0  02:59        1.55
  YS02001901           JUNCTION     0.52     1.67     8.28     0  02:53        1.67
  YS02001904           JUNCTION     0.49     1.63     8.26     0  03:04        1.63
  YS02001907           JUNCTION     0.82     1.96     8.25     0  02:52        1.96
  YS02001910           JUNCTION     0.61     1.77     8.28     0  02:53        1.77
  YS02001915           JUNCTION     0.41     1.58     8.30     0  02:54        1.57
  YS02001918           JUNCTION     0.18     1.25     8.32     0  02:53        1.25
  YS02001619           JUNCTION     1.27     1.47     8.40     0  03:01        1.47
  YS02001629           JUNCTION     1.62     1.85     8.40     0  02:46        1.84
  YS02001641           JUNCTION     1.72     1.94     8.37     0  02:49        1.93
  YS02001644           JUNCTION     1.72     1.92     8.35     0  02:46        1.92
  YS02001652           JUNCTION     1.57     2.03     8.63     0  03:59        1.87
  YS02001655           JUNCTION     1.33     1.95     8.80     0  03:59        1.67
  YS02001920           JUNCTION     0.29     1.33     8.33     0  02:54        1.32
  YS02001923           JUNCTION     0.15     1.07     8.33     0  02:54        1.07
  YS02001926           JUNCTION     0.22     0.90     8.34     0  02:53        0.90
  YS02001929           JUNCTION     0.12     0.67     8.37     0  02:53        0.62
  YS02001658           JUNCTION     1.07     1.86     9.00     0  03:59        1.54
  YS02001661           JUNCTION     0.84     1.87     9.28     0  04:03        1.31
  YS02001664           JUNCTION     0.37     0.57     8.49     0  02:51        0.56
  YS02001622           JUNCTION     1.29     1.50     8.40     0  02:59        1.50
  YS02001633           JUNCTION     1.71     1.95     8.40     0  02:46        1.94
  YS02001649           JUNCTION     1.76     2.05     8.44     0  02:49        2.04
  YS02001757           JUNCTION     1.88     2.17     8.43     0  03:09        2.16
  YS02001895           JUNCTION     0.39     1.56     8.31     0  02:53        1.55
  YS02001625           JUNCTION     1.57     1.78     8.38     0  02:45        1.78
  YS02163301           JUNCTION     1.65     1.88     8.40     0  02:49        1.87
  YS02163601           JUNCTION     1.76     1.99     8.39     0  02:46        1.98
  YS02164001           JUNCTION     1.70     1.93     8.38     0  02:46        1.91
  YS02001647           JUNCTION     1.55     1.80     8.41     0  02:50        1.78
  YSB1154              JUNCTION     0.24     0.45     9.51     0  03:01        0.45
  YSB6556              JUNCTION     0.13     0.34     9.51     0  03:01        0.34
  YSB1174              JUNCTION     0.19     0.40     9.51     0  03:01        0.40
  YSB1171              JUNCTION     0.39     0.60     9.51     0  03:01        0.60
  YS02006553           JUNCTION     0.83     1.97     8.25     0  02:58        1.96
  YS02006561           JUNCTION     0.23     1.08     7.74     0  02:59        1.08
  YS02006556           JUNCTION     0.80     1.92     8.23     0  02:57        1.91
  YS02006558           JUNCTION     0.84     1.96     8.23     0  03:00        1.95
  YS02001783           JUNCTION     0.42     1.47     7.61     0  03:03        1.46
  YS02001784           JUNCTION     0.45     1.42     7.49     0  02:53        1.41
  YS02001786           JUNCTION     0.41     1.26     7.29     0  03:07        1.25
  YS02001788           JUNCTION     0.35     1.13     7.11     0  02:53        1.13
  YS02001790           JUNCTION     0.47     1.40     7.05     0  02:14        1.29
  YS02001791           JUNCTION     0.46     1.31     6.78     0  02:14        1.27
  YS02001793           JUNCTION     0.69     1.80     6.64     0  02:52        1.80
  WS02004139           JUNCTION     0.58     0.71     5.62     0  07:10        0.71
  WSC                  OUTFALL      0.29     0.35     1.02     0  03:11        0.35
  3                    OUTFALL      0.08     0.20     6.20     0  05:30        0.20
  4                    OUTFALL      0.01     0.10     7.10     0  05:30        0.10
  5                    OUTFALL      0.00     0.00     5.00     0  00:00        0.00
  JK-storage           STORAGE      2.82     5.80     6.60     0  02:14        5.80
  CC-storage           STORAGE      1.16     1.41     8.41     0  03:15        1.41
  XR-storage           STORAGE      6.94     7.72     5.72     0  03:04        7.72
  
  
  *******************
  Node Inflow Summary
  *******************
  
  -------------------------------------------------------------------------------------------------
                                  Maximum  Maximum                  Lateral       Total        Flow
                                  Lateral    Total  Time of Max      Inflow      Inflow     Balance
                                   Inflow   Inflow   Occurrence      Volume      Volume       Error
  Node                 Type           LPS      LPS  days hr:min    10^6 ltr    10^6 ltr     Percent
  -------------------------------------------------------------------------------------------------
  WS02001211           JUNCTION      7.35   382.26     0  00:40       0.207        6.95       0.197
  WS02001212           JUNCTION      0.00   378.86     0  00:41           0        6.94       0.133
  WS02001213           JUNCTION      0.00   378.29     0  00:41           0        6.93       0.231
  WS02003069           JUNCTION      0.32   756.85     0  03:09     0.00902        13.8       0.155
  WS02003072           JUNCTION      0.00   756.80     0  03:10           0        13.8       0.205
  WS02003073           JUNCTION      1.82   758.61     0  03:10      0.0514        13.8       0.219
  WS02003060           JUNCTION     16.53   756.52     0  03:08       0.466        13.8       0.152
  WS02003066           JUNCTION      0.00   449.89     0  03:08           0         6.5       0.077
  WS02003059           JUNCTION      0.00   376.84     0  00:42           0        6.92       0.394
  WS02003067           JUNCTION      0.00   449.86     0  03:08           0        6.51       0.158
  WS02004401           JUNCTION      0.00   453.78     0  03:04           0        6.77       0.357
  WS02004402           JUNCTION      0.00   453.12     0  03:05           0        6.74       0.333
  WS02004403           JUNCTION      0.00   452.86     0  03:04           0        6.72       0.299
  WS02004404           JUNCTION      0.16   452.67     0  03:05     0.00457         6.7       0.222
  WS02004406           JUNCTION      0.00   452.58     0  03:05           0        6.67       0.541
  WS02004409           JUNCTION      0.00   452.50     0  03:06           0        6.62       0.293
  WS02004410           JUNCTION      0.00   451.71     0  03:06           0         6.6       0.325
  WS02004411           JUNCTION      0.00   451.05     0  03:06           0        6.58       0.329
  WS02004412           JUNCTION      0.00   450.51     0  03:07           0        6.56       0.349
  WS02004413           JUNCTION      0.00   450.07     0  03:07           0        6.54       0.507
  WS02004405           JUNCTION      0.04   452.65     0  03:05     0.00107        6.69       0.331
  WS02006109           JUNCTION      1.23   446.11     0  03:02      0.0347        6.84       0.293
  WS02006110           JUNCTION      0.00   446.12     0  03:02           0        6.82       0.334
  WS02006111           JUNCTION      0.00   458.88     0  03:03           0        6.79       0.081
  WS02006112           JUNCTION     14.47   457.62     0  03:03      0.0629        6.84       0.472
  WS02006113           JUNCTION      0.00   446.24     0  03:03           0         6.8       0.169
  WS02006115           JUNCTION      0.00   455.81     0  03:03           0        6.81       0.357
  WS02006116           JUNCTION      0.00   454.59     0  03:03           0        6.79       0.314
  WS02006230           JUNCTION     10.28   402.80     0  05:30        0.29        4.96       0.259
  WS02006231           JUNCTION      0.00   392.83     0  05:30           0        4.69       0.348
  WS02006232           JUNCTION      0.00   392.81     0  05:30           0         4.7       0.366
  WS02006234           JUNCTION      0.00   392.97     0  05:30           0        4.72       0.238
  WS02006235           JUNCTION      0.00   392.92     0  05:30           0        4.76       0.235
  WS02006238           JUNCTION      0.00   328.51     0  05:20           0        3.24       0.278
  WS02006240           JUNCTION      0.00   331.97     0  05:20           0        3.24       0.505
  WS02006242           JUNCTION      0.00   335.52     0  05:21           0        3.25       0.576
  WS02006243           JUNCTION      0.00   337.22     0  05:21           0        3.25       0.213
  WS02006245           JUNCTION      0.00   338.08     0  05:21           0        3.26       0.451
  WS02006247           JUNCTION      0.00   338.23     0  05:21           0        3.27       0.329
  WS02006248           JUNCTION      0.00   338.77     0  05:21           0        3.28       0.224
  WS02006249           JUNCTION      0.00   401.33     0  05:22           0        3.46       0.446
  WS02006239           JUNCTION      0.00   330.20     0  05:20           0        3.24       0.436
  WS02006251           JUNCTION      0.08   402.44     0  05:21     0.00217         3.5       0.404
  WS02006252           JUNCTION      0.00   400.00     0  05:20           0        3.12       0.017
  WS02006253           JUNCTION      1.91    80.98     0  03:01     0.00814       0.386       2.259
  WS02006256           JUNCTION      0.00   599.97     0  04:10           0        4.03       0.064
  WS02004138           JUNCTION      0.00   379.97     0  06:00           0        6.75       0.031
  WS02004407           JUNCTION      0.00   452.54     0  03:06           0        6.63       0.132
  WS02006228           JUNCTION      0.00   444.87     0  03:03           0        6.82       0.222
  WS02006229           JUNCTION      0.00   444.80     0  03:02           0        6.84       0.227
  WS02006280           JUNCTION      0.00   375.56     0  03:02           0        1.89       0.004
  WS02006284           JUNCTION      0.10   375.55     0  03:02      0.0027        1.89       0.064
  WS02006287           JUNCTION      0.00   375.28     0  03:01           0        1.89       0.038
  WSF200               JUNCTION      0.00   449.88     0  03:08           0        6.49       0.076
  HS02004901           JUNCTION     17.47    17.47     0  03:01      0.0757      0.0759       2.380
  HS02004881           JUNCTION      7.55    79.19     0  03:01      0.0331       0.357       0.036
  HS02004876           JUNCTION     14.15    72.10     0  03:01      0.0636       0.324       0.171
  HS02004870           JUNCTION     14.17    58.27     0  03:01      0.0626       0.261       0.043
  HS02004862           JUNCTION     13.95    44.46     0  03:01      0.0685       0.198       0.089
  HS02004856           JUNCTION     10.64    30.80     0  03:01      0.0471       0.131       1.116
  HS02004852           JUNCTION      0.00    20.44     0  03:01           0       0.084       0.069
  HS02004848           JUNCTION     32.07    32.07     0  03:01       0.151       0.151       0.032
  HS02004842           JUNCTION      0.00    11.42     0  03:01           0      0.0801      19.392
  HS02004837           JUNCTION     30.75    41.91     0  03:01       0.288       0.355       0.229
  HS02004830           JUNCTION      0.15    41.84     0  03:01     0.00423       0.346       0.359
  HS02004824           JUNCTION     40.25    81.79     0  03:01       0.198       0.542       0.100
  HS02004817           JUNCTION      0.60    82.19     0  03:01      0.0169       0.558       3.079
  HS02004807           JUNCTION     26.15   107.25     0  03:01       0.115       0.657       0.656
  HS02004802           JUNCTION      0.00   106.49     0  03:01           0       0.653       0.617
  HS02004799           JUNCTION     21.02   227.51     0  03:01      0.0933        1.06       0.236
  HS02004792           JUNCTION     88.55   207.33     0  03:01       0.396       0.966       0.043
  HS02004788           JUNCTION     30.78   119.38     0  03:01       0.177       0.571       0.068
  HS02004785           JUNCTION      0.15    89.79     0  03:01     0.00423       0.396       0.125
  HS02004777           JUNCTION      0.03    90.24     0  03:01    0.000846       0.397       1.326
  HS02004770           JUNCTION     73.89    90.93     0  03:01       0.324       0.398       0.787
  HS02004480           JUNCTION      0.00   269.28     0  03:01           0        1.25       0.099
  HS02004479           JUNCTION      0.00    42.82     0  03:02           0       0.204       0.360
  HS02004478           JUNCTION      0.00   375.17     0  03:01           0        1.89       0.018
  YS02001745           JUNCTION    297.18   373.12     0  02:38        2.34        2.35       0.444
  YS02001748           JUNCTION      0.04   542.23     0  02:38     0.00127        2.34       0.927
  YS02001751           JUNCTION      0.01   308.79     0  03:00     0.00031        2.31       1.030
  YS02001754           JUNCTION      0.26   308.64     0  03:01     0.00733        2.29       1.091
  YS02001762           JUNCTION      0.00   305.96     0  02:49           0        1.91       1.116
  YS02001765           JUNCTION      0.00   305.39     0  02:49           0        1.91       1.288
  YS02001767           JUNCTION      0.54   305.12     0  02:49      0.0151        1.93       1.877
  YS02001770           JUNCTION    373.02   487.89     0  03:19        2.63        3.04       1.041
  YS02001774           JUNCTION      0.00   488.80     0  03:19           0        1.51       1.694
  YS02001779           JUNCTION      0.01   490.15     0  03:19    0.000141        1.48       1.042
  YS02001882           JUNCTION      0.00    13.00     0  02:45           0      0.0149      16.540
  YS02001884           JUNCTION      0.00    22.10     0  02:43           0      0.0505      13.787
  YS02001759           JUNCTION    359.84   598.72     0  02:49        2.43        3.89       0.595
  YS02001887           JUNCTION    453.35   453.91     0  03:01         2.8        2.83       0.295
  YS02001890           JUNCTION      0.00   454.03     0  03:01           0        2.79       0.324
  YS02001898           JUNCTION      0.00   453.41     0  03:01           0        2.77       0.107
  YS02001901           JUNCTION      0.00   454.12     0  03:01           0        2.77       0.249
  YS02001904           JUNCTION      0.00   453.79     0  03:01           0        2.77       0.221
  YS02001907           JUNCTION      0.00   859.11     0  02:58           0        6.12       0.384
  YS02001910           JUNCTION      0.00   430.83     0  02:54           0        3.37       0.344
  YS02001915           JUNCTION    263.65   431.11     0  02:54        1.96        3.39       0.179
  YS02001918           JUNCTION      0.00   196.34     0  02:54           0        1.43       0.133
  YS02001619           JUNCTION    257.27   257.27     0  03:01        1.95        1.95       0.631
  YS02001629           JUNCTION      0.00   199.41     0  02:30           0        1.61       1.826
  YS02001641           JUNCTION      0.00   413.38     0  02:45           0        3.83       0.552
  YS02001644           JUNCTION    282.70  1207.92     0  03:18        2.25        8.76       0.301
  YS02001652           JUNCTION      0.00   366.78     0  03:01           0        2.05       1.165
  YS02001655           JUNCTION      0.15   365.85     0  03:01     0.00434        2.07       1.201
  YS02001920           JUNCTION      2.87   195.91     0  02:54      0.0809        1.42       0.203
  YS02001923           JUNCTION      0.04   206.72     0  02:54     0.00106        1.34       0.050
  YS02001926           JUNCTION      0.05   156.80     0  02:59     0.00147        1.34       0.245
  YS02001929           JUNCTION    129.40   129.40     0  03:01        1.34        1.34       0.040
  YS02001658           JUNCTION      0.00   623.48     0  02:34           0        2.11       0.923
  YS02001661           JUNCTION      0.00   663.86     0  02:51           0        2.75      -0.342
  YS02001664           JUNCTION    327.80   343.42     0  02:51        2.09        2.74       0.219
  YS02001622           JUNCTION      0.00   257.75     0  03:01           0        1.94       1.668
  YS02001633           JUNCTION    287.40   410.59     0  02:45        2.32        3.88       0.829
  YS02001649           JUNCTION      0.00   859.73     0  02:47           0        5.36       0.695
  YS02001757           JUNCTION      0.00  1647.61     0  02:47           0        8.43       1.104
  YS02001895           JUNCTION      0.00   453.83     0  03:01           0        2.78       0.175
  YS02001625           JUNCTION      0.00   257.53     0  03:01           0         1.9       2.073
  YS02163301           JUNCTION      0.00   200.01     0  02:38           0        1.59       1.535
  YS02163601           JUNCTION      0.11   411.68     0  02:45      0.0031        3.85       0.787
  YS02164001           JUNCTION      0.00   412.74     0  02:45           0        3.83       0.527
  YS02001647           JUNCTION      0.00   623.87     0  02:45           0        4.53       0.627
  YSB1154              JUNCTION     25.19    25.19     0  03:01       0.113       0.114       1.285
  YSB6556              JUNCTION      0.00    24.92     0  03:01           0       0.115       1.100
  YSB1174              JUNCTION     19.06    19.06     0  03:01      0.0821      0.0827       1.580
  YSB1171              JUNCTION      0.00    43.19     0  03:01           0       0.203       3.220
  YS02006553           JUNCTION      0.00   668.07     0  03:17           0         5.9       0.265
  YS02006561           JUNCTION      0.00   964.53     0  03:01           0        8.42       0.004
  YS02006556           JUNCTION      0.00   667.64     0  03:17           0         5.9       0.182
  YS02006558           JUNCTION    392.87   965.15     0  02:59        2.57        8.45       0.065
  YS02001783           JUNCTION      0.00   964.43     0  03:00           0        8.42       0.027
  YS02001784           JUNCTION      1.06   965.58     0  02:58      0.0299        8.44       0.040
  YS02001786           JUNCTION      0.06   965.46     0  03:00     0.00159        8.44       0.040
  YS02001788           JUNCTION      0.07   965.36     0  03:01       0.002        8.44       0.023
  YS02001790           JUNCTION      0.15   965.83     0  03:00     0.00437        8.44       0.026
  YS02001791           JUNCTION      0.00   965.79     0  03:00           0        8.44       0.015
  YS02001793           JUNCTION      0.00   966.02     0  03:00           0        8.44       0.007
  WS02004139           JUNCTION      0.32   379.83     0  00:40     0.00905        6.76       0.277
  WSC                  OUTFALL       0.00   758.57     0  03:11           0        13.8       0.000
  3                    OUTFALL       0.00   505.14     0  05:30           0        2.48       0.000
  4                    OUTFALL       0.00   100.49     0  05:30           0       0.171       0.000
  5                    OUTFALL       0.00     0.00     0  00:00           0           0       0.000 ltr
  JK-storage           STORAGE       0.00   966.16     0  03:00           0        8.59      -3.857
  CC-storage           STORAGE       0.00  1647.78     0  02:47           0        6.79       0.924
  XR-storage           STORAGE     690.11   690.11     0  03:01        9.61        10.2      -0.005
  
  
  **********************
  Node Surcharge Summary
  **********************
  
  Surcharging occurs when water rises above the top of the highest conduit.
  ---------------------------------------------------------------------
                                               Max. Height   Min. Depth
                                   Hours       Above Crown    Below Rim
  Node                 Type      Surcharged         Meters       Meters
  ---------------------------------------------------------------------
  WS02006109           JUNCTION        0.92          0.049        1.771
  WS02006232           JUNCTION        0.83          0.046        1.434
  WS02006235           JUNCTION        0.33          0.034        1.256
  WS02006238           JUNCTION        0.65          0.053        1.377
  WS02006242           JUNCTION        0.47          0.045        0.775
  WS02006239           JUNCTION        0.10          0.009        1.281
  WS02006252           JUNCTION        1.16          0.193        0.907
  WS02006228           JUNCTION        0.81          0.055        2.145
  YS02001748           JUNCTION        5.12          0.306        0.884
  YS02001751           JUNCTION        5.29          0.548        0.652
  YS02001754           JUNCTION        5.48          0.769        0.381
  YS02001762           JUNCTION        5.64          1.034        0.116
  YS02001765           JUNCTION        5.62          0.981        0.119
  YS02001767           JUNCTION        5.59          0.929        0.101
  YS02001770           JUNCTION        5.58          0.880        0.040
  YS02001774           JUNCTION        5.63          0.973        0.077
  YS02001779           JUNCTION        5.46          0.680        0.000
  YS02001882           JUNCTION        0.81          0.622        0.208
  YS02001884           JUNCTION        0.84          0.650        0.220
  YS02001759           JUNCTION        5.66          1.065        0.145
  YS02001887           JUNCTION        0.94          0.739        0.211
  YS02001890           JUNCTION        0.97          0.760        0.000
  YS02001898           JUNCTION        0.76          0.523        0.217
  YS02001901           JUNCTION        0.90          0.672        0.198
  YS02001904           JUNCTION        0.87          0.634        0.216
  YS02001907           JUNCTION        1.51          0.950        0.000
  YS02001910           JUNCTION        1.02          0.773        0.327
  YS02001915           JUNCTION        0.79          0.583        0.417
  YS02001918           JUNCTION        0.54          0.251        0.559
  YS02001619           JUNCTION        5.28          0.473        0.137
  YS02001629           JUNCTION        5.29          0.467        0.003
  YS02001641           JUNCTION        5.62          0.936        0.164
  YS02001644           JUNCTION        5.62          0.920        0.000
  YS02001652           JUNCTION        5.52          1.005        0.125
  YS02001655           JUNCTION        5.30          0.946        0.254
  YS02001920           JUNCTION        0.57          0.326        0.814
  YS02001658           JUNCTION        5.15          0.857        0.443
  YS02001661           JUNCTION        0.17          0.804        0.586
  YS02001622           JUNCTION        5.32          0.497        0.123
  YS02001633           JUNCTION        5.61          0.927        0.133
  YS02001649           JUNCTION        5.64          1.050        0.000
  YS02001757           JUNCTION        5.74          1.169        0.041
  YS02001895           JUNCTION        0.78          0.559        0.191
  YS02001625           JUNCTION        5.55          0.780        0.000
  YS02163301           JUNCTION        5.59          0.882        0.148
  YS02163601           JUNCTION        5.64          0.993        0.087
  YS02164001           JUNCTION        5.61          0.926        0.174
  YS02001647           JUNCTION        5.53          0.802        0.098
  YS02006553           JUNCTION        1.58          0.965        0.225
  YS02006561           JUNCTION        0.67          0.279        0.871
  YS02006556           JUNCTION        1.25          0.879        0.471
  YS02006558           JUNCTION        1.20          0.859        0.541
  YS02001783           JUNCTION        1.49          0.672        0.928
  YS02001784           JUNCTION        1.55          0.617        0.873
  YS02001786           JUNCTION        1.49          0.463        0.967
  YS02001788           JUNCTION        1.46          0.331        1.149
  YS02001790           JUNCTION        2.43          0.605        0.552
  YS02001791           JUNCTION        2.57          0.512        1.408
  YS02001793           JUNCTION        2.88          0.804        1.796
  
  
  *********************
  Node Flooding Summary
  *********************
  
  Flooding refers to all water that overflows a node, whether it ponds or not.
  --------------------------------------------------------------------------
                                                             Total   Maximum
                                 Maximum   Time of Max       Flood    Ponded
                        Hours       Rate    Occurrence      Volume     Depth
  Node                 Flooded       LPS   days hr:min    10^6 ltr    Meters
  --------------------------------------------------------------------------
  YS02001779              2.58    489.91      0  03:19       1.458     0.000
  YS02001890              0.01      0.50      0  02:53       0.000     0.000
  YS02001907              0.38    274.76      0  02:58       0.212     0.000
  YS02001644              4.17   1207.57      0  03:18       6.908     0.000
  YS02001649              0.02     29.55      0  03:59       0.001     0.000
  YS02001625              0.90    169.27      0  03:01       0.253     0.000
  JK-storage              2.03    966.06      0  03:00       4.909     0.000
  XR-storage              4.09    379.63      0  03:04       2.532     0.000
  
  
  **********************
  Storage Volume Summary
  **********************
  
  --------------------------------------------------------------------------------------------------
                         Average     Avg  Evap Exfil       Maximum     Max    Time of Max    Maximum
                          Volume    Pcnt  Pcnt  Pcnt        Volume    Pcnt     Occurrence    Outflow
  Storage Unit           1000 m3    Full  Loss  Loss       1000 m3    Full    days hr:min        LPS
  --------------------------------------------------------------------------------------------------
  JK-storage               0.142      49     0     0         0.291     100       0  02:14     599.97
  CC-storage               3.232      21     0     0         3.937      25       0  03:15     400.00
  XR-storage               0.832      90     0     0         0.926     100       0  03:04     379.97
  
  
  ***********************
  Outfall Loading Summary
  ***********************
  
  -----------------------------------------------------------
                         Flow       Avg       Max       Total
                         Freq      Flow      Flow      Volume
  Outfall Node           Pcnt       LPS       LPS    10^6 ltr
  -----------------------------------------------------------
  WSC                  100.00    531.21    758.57      13.796
  3                     76.49    190.84    505.14       2.476
  4                     19.64     45.68    100.49       0.171
  5                      0.00      0.00      0.00       0.000
  -----------------------------------------------------------
  System                49.03    767.73   1216.21      16.442
  
  
  ********************
  Link Flow Summary
  ********************
  
  -----------------------------------------------------------------------------
                                 Maximum  Time of Max   Maximum    Max/    Max/
                                  |Flow|   Occurrence   |Veloc|    Full    Full
  Link                 Type          LPS  days hr:min     m/sec    Flow   Depth
  -----------------------------------------------------------------------------
  WS02003066WSF200     CONDUIT    449.88     0  03:08      2.64    0.08    0.21
  WS02006287WS02006284 CONDUIT    375.46     0  03:02      1.98    0.17    0.29
  WS02006284WS02006280 CONDUIT    375.56     0  03:02      2.22    0.16    0.27
  WS02006280WS02006229 CONDUIT    375.60     0  03:02      3.58    0.08    0.19
  WS02006229WS02006228 CONDUIT    444.87     0  03:03      0.89    1.47    1.00
  WS02006256WS02006235 CONDUIT    150.00     0  00:15      2.14    1.59    1.00
  WS02006253WS02006251 CONDUIT     80.92     0  03:01      0.62    0.24    0.90
  WS02006252WS02006251 CONDUIT    400.68     0  05:20      3.19    1.47    1.00
  WS02006251WS02006249 CONDUIT    401.33     0  05:22      1.16    1.16    0.87
  WS02006249WS02006248 CONDUIT    338.77     0  05:21      1.09    1.86    0.83
  WS02006248WS02006247 CONDUIT    338.23     0  05:21      1.04    0.74    0.87
  WS02006247WS02006245 CONDUIT    338.08     0  05:21      0.99    2.68    0.91
  WS02006245WS02006243 CONDUIT    337.22     0  05:21      1.00    1.00    0.92
  WS02006243WS02006242 CONDUIT    335.52     0  05:21      0.93    0.72    0.98
  WS02006242WS02006240 CONDUIT    331.97     0  05:20      0.91    1.32    1.00
  WS02006240WS02006239 CONDUIT    330.20     0  05:20      0.95    1.04    1.00
  WS02006239WS02006238 CONDUIT    328.51     0  05:20      0.90    1.05    1.00
  WS02006238WS02006235 CONDUIT    326.76     0  05:20      0.89    0.73    1.00
  WS02006235WS02006234 CONDUIT    392.97     0  05:30      1.03    4.15    0.99
  WS02006234WS02006232 CONDUIT    392.81     0  05:30      1.02    0.79    1.00
  WS02006232WS02006231 CONDUIT    392.83     0  05:30      1.06    0.82    0.92
  WS02006231WS02006230 CONDUIT    392.52     0  05:30      1.33    5.95    0.77
  WS02006230WS02006229 CONDUIT    402.57     0  05:31      1.05    8.96    1.00
  WS02006228WS02006109 CONDUIT    444.88     0  03:02      0.89    1.94    1.00
  WS02006116WS02004401 CONDUIT    453.78     0  03:04      0.80    0.63    0.77
  WS02006115WS02006116 CONDUIT    454.59     0  03:03      0.89    0.58    0.69
  WS02006113WS02006111 CONDUIT    458.88     0  03:03      2.30    0.55    0.42
  WS02006112WS02006115 CONDUIT    455.81     0  03:03      0.66    0.27    0.82
  WS02006111WS02006112 CONDUIT    447.67     0  03:04      1.28    0.21    0.66
  WS02006110WS02006113 CONDUIT    446.24     0  03:03      1.10    0.41    0.76
  WS02006109WS02006110 CONDUIT    446.12     0  03:02      0.90    0.86    0.96
  WS02004411WS02004412 CONDUIT    450.51     0  03:07      0.85    0.64    0.64
  WS02004401WS02004402 CONDUIT    453.12     0  03:05      0.83    0.54    0.80
  WS02004413WS02003067 CONDUIT    449.86     0  03:08      1.01    0.19    0.55
  WS02004412WS02004413 CONDUIT    450.07     0  03:07      0.74    0.30    0.73
  WS02004410WS02004411 CONDUIT    451.05     0  03:06      0.87    0.62    0.63
  WS02004409WS02004410 CONDUIT    451.71     0  03:06      0.90    0.58    0.61
  WS02004407WS02004409 CONDUIT    452.50     0  03:06      1.37    0.16    0.44
  WS02004406WS02004407 CONDUIT    452.54     0  03:06      0.94    0.20    0.59
  WS02004405WS02004406 CONDUIT    452.58     0  03:05      0.75    0.89    0.90
  WS02004404WS02004405 CONDUIT    452.62     0  03:05      0.96    4.43    0.90
  WS02004403WS02004404 CONDUIT    452.51     0  03:05      0.84    0.33    0.87
  WS02004402WS02004403 CONDUIT    452.86     0  03:04      0.85    0.65    0.82
  WS02004139WS02001211 CONDUIT    374.91     0  00:40      0.81    0.47    0.57
  WS02004138WS02004139 CONDUIT    379.51     0  00:40      3.34    0.08    0.43
  WS02003067WS02003066 CONDUIT    449.89     0  03:08      1.09    0.14    0.39
  WS02001213WS02003059 CONDUIT    376.84     0  00:42      0.78    0.62    0.73
  WS02001212WS02001213 CONDUIT    378.29     0  00:41      1.31    0.58    0.43
  WS02001211WS02001212 CONDUIT    378.86     0  00:41      0.77    0.29    0.62
  WS02003072WS02003073 CONDUIT    756.79     0  03:10      1.60    1.63    0.44
  WS02003069WS02003072 CONDUIT    756.80     0  03:10      1.51    0.36    0.45
  WS02003060WS02003069 CONDUIT    756.53     0  03:09      1.77    0.30    0.40
  WS02003059WS02003060 CONDUIT    374.98     0  00:43      0.93    0.24    0.61
  HS02004901HS02004770 CONDUIT     17.70     0  03:01      0.07    0.07    0.39
  HS02004876HS02004881 CONDUIT     71.90     0  03:01      0.92    0.76    0.11
  HS02004870HS02004876 CONDUIT     58.04     0  03:01      0.63    0.04    0.13
  HS02004842HS02004848 CONDUIT     11.42     0  03:01      0.05    0.01    0.30
  HS02004837HS02004842 CONDUIT     11.95     0  03:02      0.42    0.01    0.32
  HS02004830HS02004837 CONDUIT     41.69     0  03:01      0.56    0.04    0.11
  HS02004824HS02004830 CONDUIT     41.67     0  03:01      0.58    0.05    0.10
  HS02004817HS02004824 CONDUIT     81.59     0  03:01      0.25    0.04    0.47
  HS02004770HS02004777 CONDUIT     90.21     0  03:01      0.32    0.16    0.41
  HS02004799HS02004480 CONDUIT    226.98     0  03:01      0.78    0.29    0.42
  HS02004792HS02004799 CONDUIT    206.61     0  03:01      0.88    0.13    0.33
  HS02004788HS02004792 CONDUIT    118.95     0  03:01      1.01    0.08    0.17
  HS02004785HS02004788 CONDUIT     89.52     0  03:02      0.66    0.67    0.19
  HS02004777HS02004785 CONDUIT     89.64     0  03:01      0.38    0.11    0.33
  HS02004480HS02004478 CONDUIT    269.13     0  03:01      1.20    1.13    0.32
  HS02004479HS02004480 CONDUIT     44.18     0  03:02      0.23    0.04    0.40
  HS02004862HS02004870 CONDUIT     44.23     0  03:01      0.64    0.05    0.10
  HS02004848HS02004852 CONDUIT     20.44     0  03:01      0.44    0.02    0.07
  HS02004856HS02004862 CONDUIT     30.57     0  03:01      0.47    0.03    0.09
  HS02004852HS02004856 CONDUIT     20.26     0  03:01      0.24    0.02    0.12
  HS02004802HS02004478 CONDUIT    106.59     0  03:02      0.45    0.09    0.35
  HS02004478WS02006287 CONDUIT    375.28     0  03:01      1.68    0.11    0.25
  HS02004817HS02004807 CONDUIT     82.18     0  03:01      0.19    0.05    0.62
  HS02004807HS02004802 CONDUIT    106.49     0  03:01      0.38    0.20    0.40
  YS02001759YS02001757 CONDUIT    599.75     0  02:49      0.76    0.43    1.00
  YS02001762YS02001759 CONDUIT    305.29     0  02:49      0.39    0.35    1.00
  YS02001765YS02001762 CONDUIT    305.96     0  02:49      0.39    0.29    1.00
  YS02001770YS02001767 CONDUIT    304.58     0  02:49      0.39    1.21    1.00
  YS02001774YS02001770 CONDUIT    488.80     0  03:19      0.62    0.31    1.00
  YS02001779YS02001774 CONDUIT    490.15     0  03:19      0.62    0.25    1.00
  YS02001649YS02001757 CONDUIT    860.27     0  02:46      1.10    0.52    1.00
  YS02001767YS02001765 CONDUIT    305.39     0  02:49      0.39    0.38    1.00
  YS02006561YS02001783 CONDUIT    964.43     0  03:00      1.92    0.50    1.00
  YS02001783YS02001784 CONDUIT    964.52     0  02:58      1.92    1.33    1.00
  YS02001784YS02001785 CONDUIT    965.40     0  03:00      1.92    2.25    1.00
  YS02001788YS02001790 CONDUIT    965.68     0  03:00      1.94    0.71    1.00
  YS02001790YS02001791 CONDUIT    965.79     0  03:00      2.27    1.05    1.00
  YS02001791YS02001793 CONDUIT    966.02     0  03:00      4.38    0.41    1.00
  YS02001910YS02001907 CONDUIT    431.00     0  02:54      0.55    0.24    1.00
  YS02001786YS02001788 CONDUIT    965.29     0  03:01      1.94    1.86    1.00
  YS02001915YS02001910 CONDUIT    430.83     0  02:54      0.55    0.21    1.00
  YS02001918YS02001915 CONDUIT    197.81     0  02:54      0.44    0.11    1.00
  YS02001923YS02001920 CONDUIT    193.04     0  02:54      0.68    0.09    1.00
  YS02001926YS02001923 CONDUIT    206.68     0  02:54      0.79    0.30    0.88
  YS02001929YS02001926 CONDUIT    156.74     0  02:59      0.84    0.07    0.78
  YS02001920YS02001918 CONDUIT    196.34     0  02:54      0.67    0.19    1.00
  YS02001629YS02163301 CONDUIT    200.01     0  02:38      0.25    0.25    1.00
  YS02001619YS02001622 CONDUIT    257.75     0  03:01      0.61    0.38    1.00
  YS02001622YS02001625 CONDUIT    257.53     0  03:01      0.33    0.14    1.00
  YS02001625YS02001629 CONDUIT    199.41     0  02:30      0.26    0.09    1.00
  YS02163301YS02001633 CONDUIT    202.86     0  02:38      0.26    0.19    1.00
  YS02163601YS02164001 CONDUIT    412.74     0  02:45      0.53    0.37    1.00
  YS02164001YS02001641 CONDUIT    413.38     0  02:45      0.53    0.56    1.00
  YS02001641YS02001644 CONDUIT    413.70     0  02:45      0.53    1.34    1.00
  YS02001647YS02001649 CONDUIT    623.04     0  02:45      0.79    0.33    1.00
  YS02006553YS02006556 CONDUIT    667.64     0  03:17      0.85    0.57    1.00
  YS02006556YS02006558 CONDUIT    667.77     0  03:17      0.85    0.53    1.00
  YSB6556YSB1171       CONDUIT     24.82     0  03:03      0.09    0.03    0.67
  YS02001907YS02006553 CONDUIT    668.07     0  03:17      0.74    0.79    1.00
  YS02006558YS02006561 CONDUIT    964.53     0  03:01      3.41    2.13    1.00
  YS02001633YS02163601 CONDUIT    411.57     0  02:45      0.52    0.43    1.00
  YS02001644YS02001647 CONDUIT    623.87     0  02:45      0.79    0.37    1.00
  YS02001745YS02001748 CONDUIT    542.19     0  02:38      1.48    0.21    0.95
  YS02001748YS02001751 CONDUIT    308.78     0  03:00      1.05    0.16    1.00
  YS02001751YS02001754 CONDUIT    308.38     0  03:01      0.88    0.15    1.00
  YS02001754YS02001757 CONDUIT    307.89     0  03:01      0.39    0.12    1.00
  YS02001882YS02001884 CONDUIT     13.00     0  02:45      0.09    0.01    1.00
  YS02001884YS02001887 CONDUIT     22.10     0  02:43      0.05    0.03    1.00
  YS02001890YS02001895 CONDUIT    453.83     0  03:01      0.58    0.21    1.00
  YS02001895YS02001898 CONDUIT    453.41     0  03:01      0.58    0.79    1.00
  YS02001898YS02001901 CONDUIT    454.12     0  03:01      0.58    0.29    1.00
  YS02001901YS02001904 CONDUIT    453.79     0  03:01      0.58    0.70    1.00
  YS02001904YS02001907 CONDUIT    453.91     0  03:01      0.58    0.16    1.00
  YS02001887YS02001890 CONDUIT    454.03     0  03:01      0.58    0.78    1.00
  YS02001652YS02001649 CONDUIT    368.68     0  03:01      0.50    0.18    1.00
  YS02001655YS02001652 CONDUIT    366.78     0  03:01      0.93    0.18    1.00
  YS02001658YS02001655 CONDUIT    365.69     0  03:01      1.21    0.16    1.00
  YS02001661YS02001658 CONDUIT    623.48     0  02:34      1.56    0.24    1.00
  YS02001664YS02001661 CONDUIT    663.86     0  02:51      1.45    0.21    0.74
  YSB1154YSB6556       CONDUIT     24.92     0  03:01      0.18    0.04    0.56
  YSB1174YSB1171       CONDUIT     18.78     0  03:01      0.07    0.03    0.68
  YSB1171HS02004479    CONDUIT     42.82     0  03:02      0.54    0.03    0.53
  HS02004881HS02006253 CONDUIT     79.16     0  03:01      2.19    0.02    0.22
  YS02001793JiankangQianchi CONDUIT    966.16     0  03:00     11.38    0.08    1.00
  YS02001757CaochengTiaoxuchi CONDUIT   1647.78     0  02:47      2.12    0.72    1.00
  WSF200WS02003060     CONDUIT    449.96     0  03:08      1.91    0.10    0.30
  1                    CONDUIT    758.57     0  03:11      3.09    0.26    0.35
  2                    CONDUIT    100.49     0  05:30      4.85    0.24    0.33
  3                    CONDUIT    505.14     0  05:30      9.82    0.80    0.68
  4                    CONDUIT      0.00     0  00:00      0.00    0.00    0.00
  CC-Pump-1            PUMP       200.00     0  04:20              1.00
  CC-Pump-2            PUMP       200.00     0  04:00              1.00
  JK-Pump-1            PUMP       300.00     0  04:00              1.00
  JK-Pump-2            PUMP       300.00     0  00:20              1.00
  XR-Pump-1            PUMP        95.00     0  00:00              1.00
  XR-Pump-2            PUMP        95.00     0  00:00              1.00
  XR-Pump-3            PUMP        95.00     0  00:00              1.00
  XR-Pump-4            PUMP        95.00     0  00:30              1.00
  
  
  ***************************
  Flow Classification Summary
  ***************************
  
  -------------------------------------------------------------------------------------
                      Adjusted    ---------- Fraction of Time in Flow Class ---------- 
                       /Actual         Up    Down  Sub   Sup   Up    Down  Norm  Inlet 
  Conduit               Length    Dry  Dry   Dry   Crit  Crit  Crit  Crit  Ltd   Ctrl  
  -------------------------------------------------------------------------------------
  WS02003066WSF200        1.00   0.05  0.02  0.00  0.00  0.94  0.00  0.00  0.79  0.00
  WS02006287WS02006284    1.00   0.04  0.01  0.00  0.75  0.20  0.00  0.00  0.65  0.00
  WS02006284WS02006280    1.00   0.05  0.00  0.00  0.00  0.00  0.00  0.95  0.00  0.00
  WS02006280WS02006229    1.00   0.05  0.00  0.00  0.00  0.00  0.00  0.95  0.00  0.00
  WS02006229WS02006228    1.00   0.00  0.00  0.00  1.00  0.00  0.00  0.00  0.00  0.00
  WS02006256WS02006235    1.00   0.00  0.00  0.00  1.00  0.00  0.00  0.00  0.00  0.00
  WS02006253WS02006251    1.00   0.03  0.02  0.00  0.95  0.00  0.00  0.00  0.00  0.00
  WS02006252WS02006251    1.00   0.22  0.00  0.00  0.00  0.00  0.78  0.00  0.00  0.00
  WS02006251WS02006249    1.00   0.00  0.00  0.00  1.00  0.00  0.00  0.00  0.31  0.00
  WS02006249WS02006248    1.00   0.00  0.00  0.00  0.85  0.00  0.15  0.00  0.00  0.00
  WS02006248WS02006247    1.00   0.00  0.00  0.00  0.97  0.00  0.00  0.03  0.23  0.00
  WS02006247WS02006245    1.00   0.00  0.00  0.00  0.98  0.00  0.00  0.02  0.00  0.00
  WS02006245WS02006243    1.00   0.01  0.00  0.00  0.94  0.00  0.00  0.05  0.01  0.00
  WS02006243WS02006242    1.00   0.01  0.00  0.00  0.99  0.00  0.00  0.00  0.39  0.00
  WS02006242WS02006240    1.00   0.01  0.00  0.00  0.99  0.00  0.00  0.00  0.00  0.00
  WS02006240WS02006239    1.00   0.01  0.00  0.00  0.95  0.00  0.00  0.04  0.01  0.00
  WS02006239WS02006238    1.00   0.00  0.00  0.00  0.99  0.00  0.00  0.00  0.12  0.00
  WS02006238WS02006235    1.00   0.00  0.00  0.00  1.00  0.00  0.00  0.00  0.00  0.00
  WS02006235WS02006234    1.00   0.00  0.00  0.00  0.96  0.00  0.03  0.00  0.00  0.00
  WS02006234WS02006232    1.00   0.00  0.00  0.00  0.99  0.00  0.00  0.00  0.08  0.00
  WS02006232WS02006231    1.00   0.01  0.00  0.00  0.99  0.00  0.00  0.00  0.00  0.00
  WS02006231WS02006230    1.00   0.01  0.00  0.00  0.45  0.00  0.54  0.00  0.00  0.00
  WS02006230WS02006229    1.00   0.00  0.00  0.00  0.99  0.00  0.00  0.01  0.01  0.00
  WS02006228WS02006109    1.00   0.00  0.00  0.00  1.00  0.00  0.00  0.00  0.00  0.00
  WS02006116WS02004401    1.00   0.03  0.00  0.00  0.97  0.00  0.00  0.00  0.00  0.00
  WS02006115WS02006116    1.00   0.03  0.00  0.00  0.97  0.00  0.00  0.00  0.00  0.00
  WS02006113WS02006111    1.00   0.02  0.00  0.00  0.00  0.98  0.00  0.00  0.16  0.00
  WS02006112WS02006115    1.00   0.02  0.01  0.00  0.97  0.00  0.00  0.00  0.00  0.00
  WS02006111WS02006112    1.00   0.02  0.00  0.00  0.97  0.00  0.00  0.00  0.95  0.00
  WS02006110WS02006113    1.00   0.00  0.01  0.00  0.98  0.00  0.00  0.00  0.00  0.00
  WS02006109WS02006110    1.00   0.00  0.00  0.00  1.00  0.00  0.00  0.00  0.00  0.00
  WS02004411WS02004412    1.00   0.04  0.00  0.00  0.96  0.00  0.00  0.00  0.00  0.00
  WS02004401WS02004402    1.00   0.03  0.00  0.00  0.97  0.00  0.00  0.00  0.00  0.00
  WS02004413WS02003067    1.00   0.04  0.01  0.00  0.00  0.00  0.94  0.00  0.00  0.00
  WS02004412WS02004413    1.00   0.04  0.00  0.00  0.96  0.00  0.00  0.00  0.02  0.00
  WS02004410WS02004411    1.00   0.04  0.00  0.00  0.96  0.00  0.00  0.00  0.02  0.00
  WS02004409WS02004410    1.00   0.04  0.00  0.00  0.96  0.00  0.00  0.00  0.04  0.00
  WS02004407WS02004409    1.00   0.04  0.00  0.00  0.96  0.00  0.00  0.00  0.90  0.00
  WS02004406WS02004407    1.00   0.00  0.04  0.00  0.96  0.00  0.00  0.00  0.00  0.00
  WS02004405WS02004406    1.00   0.00  0.00  0.00  1.00  0.00  0.00  0.00  0.03  0.00
  WS02004404WS02004405    1.00   0.00  0.00  0.00  1.00  0.00  0.00  0.00  0.00  0.00
  WS02004403WS02004404    1.00   0.00  0.03  0.00  0.97  0.00  0.00  0.00  0.00  0.00
  WS02004402WS02004403    1.00   0.03  0.00  0.00  0.97  0.00  0.00  0.00  0.00  0.00
  WS02004139WS02001211    1.00   0.00  0.00  0.00  1.00  0.00  0.00  0.00  0.00  0.00
  WS02004138WS02004139    1.00   0.00  0.00  0.00  1.00  0.00  0.00  0.00  1.00  0.00
  WS02003067WS02003066    1.00   0.06  0.00  0.00  0.94  0.00  0.00  0.00  0.00  0.00
  WS02001213WS02003059    1.00   0.00  0.00  0.00  1.00  0.00  0.00  0.00  0.00  0.00
  WS02001212WS02001213    1.00   0.00  0.00  0.00  0.82  0.00  0.18  0.00  0.00  0.00
  WS02001211WS02001212    1.00   0.00  0.00  0.00  1.00  0.00  0.00  0.00  0.00  0.00
  WS02003072WS02003073    1.00   0.00  0.00  0.00  0.00  0.00  0.00  1.00  0.00  0.00
  WS02003069WS02003072    1.00   0.00  0.00  0.00  1.00  0.00  0.00  0.00  0.24  0.00
  WS02003060WS02003069    1.00   0.00  0.00  0.00  1.00  0.00  0.00  0.00  0.04  0.00
  WS02003059WS02003060    1.00   0.00  0.00  0.00  1.00  0.00  0.00  0.00  0.01  0.00
  HS02004901HS02004770    1.00   0.05  0.00  0.00  0.95  0.00  0.00  0.00  0.00  0.00
  HS02004876HS02004881    1.00   0.00  0.00  0.00  0.96  0.04  0.00  0.00  0.00  0.00
  HS02004870HS02004876    1.00   0.00  0.00  0.00  1.00  0.00  0.00  0.00  0.95  0.00
  HS02004842HS02004848    1.00   0.00  0.05  0.00  0.95  0.00  0.00  0.00  0.58  0.00
  HS02004837HS02004842    1.00   0.00  0.00  0.00  1.00  0.00  0.00  0.00  0.11  0.00
  HS02004830HS02004837    1.00   0.00  0.00  0.00  1.00  0.00  0.00  0.00  0.99  0.00
  HS02004824HS02004830    1.00   0.00  0.00  0.00  1.00  0.00  0.00  0.00  0.00  0.00
  HS02004817HS02004824    1.00   0.00  0.00  0.00  1.00  0.00  0.00  0.00  1.00  0.00
  HS02004770HS02004777    1.00   0.00  0.05  0.00  0.95  0.00  0.00  0.00  0.03  0.00
  HS02004799HS02004480    1.00   0.00  0.01  0.00  0.94  0.00  0.05  0.00  0.00  0.00
  HS02004792HS02004799    1.00   0.00  0.00  0.00  1.00  0.00  0.00  0.00  0.98  0.00
  HS02004788HS02004792    1.00   0.00  0.00  0.00  1.00  0.00  0.00  0.00  0.98  0.00
  HS02004785HS02004788    1.00   0.00  0.00  0.00  1.00  0.00  0.00  0.00  0.00  0.00
  HS02004777HS02004785    1.00   0.00  0.00  0.00  1.00  0.00  0.00  0.00  0.14  0.00
  HS02004480HS02004478    1.00   0.05  0.00  0.00  0.79  0.00  0.00  0.16  0.00  0.00
  HS02004479HS02004480    1.00   0.01  0.00  0.00  0.99  0.00  0.00  0.00  0.13  0.00
  HS02004862HS02004870    1.00   0.00  0.00  0.00  1.00  0.00  0.00  0.00  0.05  0.00
  HS02004848HS02004852    1.00   0.05  0.00  0.00  0.95  0.00  0.00  0.00  0.61  0.00
  HS02004856HS02004862    1.00   0.00  0.06  0.00  0.94  0.00  0.00  0.00  0.80  0.00
  HS02004852HS02004856    1.00   0.05  0.00  0.00  0.95  0.00  0.00  0.00  0.85  0.00
  HS02004802HS02004478    1.00   0.05  0.00  0.00  0.95  0.00  0.00  0.00  0.03  0.00
  HS02004478WS02006287    1.00   0.06  0.00  0.00  0.83  0.11  0.00  0.00  0.66  0.00
  HS02004817HS02004807    1.00   0.00  0.05  0.00  0.95  0.00  0.00  0.00  0.01  0.00
  HS02004807HS02004802    1.00   0.05  0.00  0.00  0.95  0.00  0.00  0.00  0.00  0.00
  YS02001759YS02001757    1.00   0.00  0.00  0.00  1.00  0.00  0.00  0.00  0.16  0.00
  YS02001762YS02001759    1.00   0.00  0.00  0.00  1.00  0.00  0.00  0.00  0.04  0.00
  YS02001765YS02001762    1.00   0.00  0.00  0.00  1.00  0.00  0.00  0.00  0.16  0.00
  YS02001770YS02001767    1.00   0.00  0.00  0.00  1.00  0.00  0.00  0.00  0.00  0.00
  YS02001774YS02001770    1.00   0.00  0.05  0.00  0.95  0.00  0.00  0.00  0.04  0.00
  YS02001779YS02001774    1.00   0.00  0.00  0.00  1.00  0.00  0.00  0.00  0.21  0.00
  YS02001649YS02001757    1.00   0.00  0.00  0.00  1.00  0.00  0.00  0.00  0.17  0.00
  YS02001767YS02001765    1.00   0.00  0.00  0.00  1.00  0.00  0.00  0.00  0.00  0.00
  YS02006561YS02001783    1.00   0.07  0.00  0.00  0.25  0.68  0.00  0.00  0.55  0.00
  YS02001783YS02001784    1.00   0.00  0.07  0.00  0.93  0.00  0.00  0.00  0.01  0.00
  YS02001784YS02001785    1.00   0.00  0.00  0.00  1.00  0.00  0.00  0.00  0.20  0.00
  YS02001788YS02001790    1.00   0.00  0.00  0.00  0.42  0.58  0.00  0.00  0.50  0.00
  YS02001790YS02001791    1.00   0.00  0.00  0.00  0.36  0.64  0.00  0.00  0.39  0.00
  YS02001791YS02001793    1.00   0.00  0.00  0.00  0.44  0.56  0.00  0.00  0.06  0.00
  YS02001910YS02001907    1.00   0.00  0.00  0.00  0.99  0.00  0.00  0.01  0.13  0.00
  YS02001786YS02001788    1.00   0.00  0.00  0.00  0.37  0.63  0.00  0.00  0.00  0.00
  YS02001915YS02001910    1.00   0.00  0.00  0.00  0.99  0.01  0.00  0.00  0.18  0.00
  YS02001918YS02001915    1.00   0.00  0.00  0.00  1.00  0.00  0.00  0.00  0.58  0.00
  YS02001923YS02001920    1.00   0.00  0.00  0.00  1.00  0.00  0.00  0.00  0.85  0.00
  YS02001926YS02001923    1.00   0.00  0.04  0.00  0.06  0.00  0.90  0.00  0.00  0.00
  YS02001929YS02001926    1.00   0.00  0.05  0.00  0.95  0.00  0.00  0.00  0.78  0.00
  YS02001920YS02001918    1.00   0.00  0.00  0.00  1.00  0.00  0.00  0.00  0.00  0.00
  YS02001629YS02163301    1.00   0.06  0.00  0.00  0.94  0.00  0.00  0.00  0.00  0.00
  YS02001619YS02001622    1.00   0.05  0.00  0.00  0.95  0.00  0.00  0.00  0.00  0.00
  YS02001622YS02001625    1.00   0.05  0.00  0.00  0.95  0.00  0.00  0.00  0.07  0.00
  YS02001625YS02001629    1.00   0.05  0.02  0.00  0.92  0.00  0.01  0.00  0.00  0.00
  YS02163301YS02001633    1.00   0.00  0.06  0.00  0.94  0.00  0.00  0.00  0.00  0.00
  YS02163601YS02164001    1.00   0.00  0.04  0.00  0.96  0.00  0.00  0.00  0.00  0.00
  YS02164001YS02001641    1.00   0.00  0.04  0.00  0.96  0.00  0.00  0.00  0.06  0.00
  YS02001641YS02001644    1.00   0.00  0.00  0.00  1.00  0.00  0.00  0.00  0.00  0.00
  YS02001647YS02001649    1.00   0.00  0.06  0.00  0.94  0.00  0.00  0.00  0.01  0.00
  YS02006553YS02006556    1.00   0.00  0.00  0.00  1.00  0.00  0.00  0.00  0.03  0.00
  YS02006556YS02006558    1.00   0.00  0.00  0.00  1.00  0.00  0.00  0.00  0.00  0.00
  YSB6556YSB1171          1.00   0.02  0.03  0.00  0.95  0.00  0.00  0.00  0.00  0.00
  YS02001907YS02006553    1.00   0.00  0.00  0.00  1.00  0.00  0.00  0.00  0.00  0.00
  YS02006558YS02006561    1.00   0.07  0.00  0.00  0.08  0.85  0.00  0.00  0.49  0.00
  YS02001633YS02163601    1.00   0.00  0.00  0.00  1.00  0.00  0.00  0.00  0.16  0.00
  YS02001644YS02001647    1.00   0.00  0.06  0.00  0.94  0.00  0.00  0.00  0.00  0.00
  YS02001745YS02001748    1.00   0.00  0.00  0.00  0.90  0.00  0.00  0.10  0.04  0.00
  YS02001748YS02001751    1.00   0.00  0.00  0.00  0.97  0.03  0.00  0.00  0.15  0.00
  YS02001751YS02001754    1.00   0.00  0.00  0.00  0.93  0.00  0.00  0.07  0.02  0.00
  YS02001754YS02001757    1.00   0.00  0.00  0.00  1.00  0.00  0.00  0.00  0.20  0.00
  YS02001882YS02001884    1.00   0.06  0.00  0.00  0.94  0.00  0.00  0.00  0.00  0.00
  YS02001884YS02001887    1.00   0.03  0.01  0.00  0.95  0.00  0.00  0.00  0.00  0.00
  YS02001890YS02001895    1.00   0.00  0.06  0.00  0.94  0.00  0.00  0.00  0.00  0.00
  YS02001895YS02001898    1.00   0.06  0.00  0.00  0.93  0.00  0.01  0.00  0.00  0.00
  YS02001898YS02001901    1.00   0.06  0.00  0.00  0.94  0.00  0.00  0.00  0.02  0.00
  YS02001901YS02001904    1.00   0.06  0.00  0.00  0.94  0.00  0.00  0.00  0.00  0.00
  YS02001904YS02001907    1.00   0.00  0.06  0.00  0.94  0.00  0.00  0.00  0.00  0.00
  YS02001887YS02001890    1.00   0.00  0.00  0.00  0.99  0.00  0.01  0.00  0.00  0.00
  YS02001652YS02001649    1.00   0.00  0.00  0.00  1.00  0.00  0.00  0.00  0.18  0.00
  YS02001655YS02001652    1.00   0.00  0.00  0.00  0.93  0.00  0.00  0.07  0.02  0.00
  YS02001658YS02001655    1.00   0.00  0.05  0.00  0.92  0.03  0.00  0.00  0.11  0.00
  YS02001661YS02001658    1.00   0.05  0.00  0.00  0.90  0.05  0.00  0.00  0.06  0.00
  YS02001664YS02001661    1.00   0.05  0.00  0.00  0.92  0.04  0.00  0.00  0.21  0.00
  YSB1154YSB6556          1.00   0.05  0.00  0.00  0.95  0.00  0.00  0.00  0.02  0.00
  YSB1174YSB1171          1.00   0.03  0.01  0.00  0.96  0.00  0.00  0.00  0.00  0.00
  YSB1171HS02004479       1.00   0.01  0.00  0.00  0.97  0.00  0.00  0.02  0.11  0.00
  HS02004881HS02006253    1.00   0.03  0.00  0.00  0.65  0.01  0.00  0.31  0.42  0.00
  YS02001793JiankangQianchi    1.00   0.00  0.00  0.00  0.65  0.35  0.00  0.00  0.29  0.00
  YS02001757CaochengTiaoxuchi    1.00   0.00  0.08  0.00  0.92  0.00  0.00  0.00  0.00  0.00
  WSF200WS02003060        1.00   0.00  0.05  0.00  0.71  0.25  0.00  0.00  0.42  0.00
  1                       1.00   0.00  0.00  0.00  0.00  1.00  0.00  0.00  0.29  0.00
  2                       1.00   0.80  0.00  0.00  0.00  0.20  0.00  0.00  0.03  0.00
  3                       1.00   0.23  0.00  0.00  0.00  0.76  0.00  0.00  0.45  0.00
  4                       1.00   1.00  0.00  0.00  0.00  0.00  0.00  0.00  0.00  0.00
  
  
  *************************
  Conduit Surcharge Summary
  *************************
  
  ----------------------------------------------------------------------------
                                                           Hours        Hours 
                         --------- Hours Full --------   Above Full   Capacity
  Conduit                Both Ends  Upstream  Dnstream   Normal Flow   Limited
  ----------------------------------------------------------------------------
  WS02006229WS02006228        0.81      1.02      0.81      3.77         0.81
  WS02006256WS02006235        4.70      4.70      6.77      2.81         0.01
  WS02006252WS02006251        0.63      0.63      1.16      1.02         0.01
  WS02006251WS02006249        0.01      0.01      0.01      0.60         0.01
  WS02006249WS02006248        0.01      0.01      0.01      2.99         0.01
  WS02006247WS02006245        0.01      0.01      0.01      3.31         0.01
  WS02006243WS02006242        0.01      0.01      0.47      0.01         0.01
  WS02006242WS02006240        0.01      0.01      0.69      1.09         0.01
  WS02006240WS02006239        0.05      0.05      0.10      0.03         0.01
  WS02006239WS02006238        0.60      0.60      0.65      0.16         0.14
  WS02006238WS02006235        0.57      0.57      0.81      0.01         0.01
  WS02006235WS02006234        0.01      0.01      0.33      4.07         0.01
  WS02006234WS02006232        0.05      0.05      0.83      0.01         0.01
  WS02006232WS02006231        0.01      0.01      0.83      0.01         0.01
  WS02006231WS02006230        0.01      0.01      0.01      4.33         0.01
  WS02006230WS02006229        1.76      3.13      1.76      5.47         1.76
  WS02006228WS02006109        0.92      1.37      0.92      4.86         0.92
  WS02006111WS02006112        0.01      0.01      3.96      0.01         0.01
  WS02006110WS02006113        0.01      0.01      1.18      0.01         0.01
  WS02006109WS02006110        0.01      0.01      1.37      0.01         0.01
  WS02004404WS02004405        0.01      0.01      0.01      5.75         0.01
  WS02003072WS02003073        0.01      0.01      0.01      4.55         0.01
  HS02004480HS02004478        0.01      0.01      0.01      0.25         0.01
  YS02001759YS02001757        5.66      5.66      5.74      0.01         0.01
  YS02001762YS02001759        5.64      5.64      5.66      0.01         0.01
  YS02001765YS02001762        5.62      5.62      5.64      0.01         0.01
  YS02001770YS02001767        5.59      5.59      5.59      0.21         0.70
  YS02001774YS02001770        5.58      5.58      5.63      0.01         0.01
  YS02001779YS02001774        5.46      5.46      5.63      0.01         0.01
  YS02001649YS02001757        5.64      5.64      5.74      0.01         0.01
  YS02001767YS02001765        5.59      5.59      5.62      0.01         0.01
  YS02006561YS02001783        0.67      0.67      1.48      0.01         0.01
  YS02001783YS02001784        1.48      1.48      1.54      1.06         1.09
  YS02001784YS02001785        1.49      1.54      1.49      2.02         1.49
  YS02001788YS02001790        1.46      1.46      2.43      0.01         0.01
  YS02001790YS02001791        2.43      2.43      2.57      0.50         0.50
  YS02001791YS02001793        2.57      2.57      2.96      0.01         0.01
  YS02001910YS02001907        1.02      1.02      1.51      0.01         0.01
  YS02001786YS02001788        1.46      1.49      1.46      1.71         1.46
  YS02001915YS02001910        0.79      0.79      1.02      0.01         0.01
  YS02001918YS02001915        0.54      0.54      0.79      0.01         0.01
  YS02001923YS02001920        0.34      0.34      0.57      0.01         0.01
  YS02001920YS02001918        0.54      0.54      0.57      0.01         0.01
  YS02001629YS02163301        5.57      5.57      5.59      0.01         0.01
  YS02001619YS02001622        5.28      5.28      5.31      0.01         0.01
  YS02001622YS02001625        5.32      5.32      5.55      0.01         0.01
  YS02001625YS02001629        5.29      5.29      5.55      0.01         0.01
  YS02163301YS02001633        5.59      5.59      5.61      0.01         0.01
  YS02163601YS02164001        5.61      5.61      5.64      0.01         0.01
  YS02164001YS02001641        5.61      5.61      5.62      0.01         0.03
  YS02001641YS02001644        5.62      5.62      5.62      1.22         1.23
  YS02001647YS02001649        5.53      5.53      5.64      0.01         0.01
  YS02006553YS02006556        1.25      1.25      1.58      0.01         0.01
  YS02006556YS02006558        1.39      1.39      1.64      0.01         0.01
  YS02001907YS02006553        2.10      2.10      2.30      0.01         0.01
  YS02006558YS02006561        0.90      1.20      0.90      1.93         0.90
  YS02001633YS02163601        5.60      5.60      5.64      0.01         0.01
  YS02001644YS02001647        5.53      5.53      5.62      0.01         0.01
  YS02001745YS02001748        0.01      0.01      5.12      0.01         0.01
  YS02001748YS02001751        5.17      5.17      5.29      0.01         0.01
  YS02001751YS02001754        5.29      5.29      5.48      0.01         0.01
  YS02001754YS02001757        5.53      5.53      5.74      0.01         0.01
  YS02001882YS02001884        0.81      0.81      0.84      0.01         0.01
  YS02001884YS02001887        0.91      0.91      0.94      0.01         0.01
  YS02001890YS02001895        0.78      0.78      1.04      0.01         0.01
  YS02001895YS02001898        0.76      0.76      0.78      0.01         0.01
  YS02001898YS02001901        0.79      0.79      0.90      0.01         0.01
  YS02001901YS02001904        0.87      0.87      0.90      0.01         0.01
  YS02001904YS02001907        0.87      0.87      1.60      0.01         0.01
  YS02001887YS02001890        0.97      0.97      1.00      0.01         0.01
  YS02001652YS02001649        5.54      5.54      5.64      0.01         0.01
  YS02001655YS02001652        5.30      5.30      5.52      0.01         0.01
  YS02001658YS02001655        5.15      5.15      5.30      0.01         0.01
  YS02001661YS02001658        0.16      0.16      5.15      0.01         0.01
  YS02001664YS02001661        0.01      0.01      1.27      0.01         0.01
  YS02001793JiankangQianchi        2.88      2.88      4.34      0.01         0.01
  YS02001757CaochengTiaoxuchi        5.01      5.01      5.74      0.01         0.01
  
  
  ***************
  Pumping Summary
  ***************
  
  ---------------------------------------------------------------------------------------------------------
                                                  Min       Avg       Max     Total     Power    % Time Off
                        Percent   Number of      Flow      Flow      Flow    Volume     Usage    Pump Curve
  Pump                 Utilized   Start-Ups       LPS       LPS       LPS  10^6 ltr     Kw-hr    Low   High
  ---------------------------------------------------------------------------------------------------------
  CC-Pump-1               29.79           4      0.00    150.21    200.00     1.260      1.29    0.0    0.0
  CC-Pump-2               46.80           5      0.00    142.82    200.00     1.860      1.61    0.0    0.0
  JK-Pump-1               48.94           5      0.00    159.71    300.00     1.874     18.58    0.0    0.0
  JK-Pump-2               51.07           5      0.00    172.06    300.00     2.152     26.61    0.0    0.0
  XR-Pump-1               95.74           2      0.00     77.53     95.00     2.252     23.02    0.0    0.0
  XR-Pump-2               95.74           3      0.00     70.98     95.00     2.023     21.19    0.0    0.0
  XR-Pump-3               80.85           5      0.00     70.37     95.00     1.796     20.91    0.0    0.0
  XR-Pump-4               44.68           5      0.00     54.32     95.00     0.684      5.02    0.0    0.0
  

  Analysis begun on:  Wed Dec 22 11:08:23 2021
  Analysis ended on:  Wed Dec 22 11:08:27 2021
  Total elapsed time: 00:00:04