
  EPA STORM WATER MANAGEMENT MODEL - VERSION 5.1 (Build 5.3.0.dev0)
  --------------------------------------------------------------

  WARNING 04: minimum elevation drop used for Conduit WS02004404WS02004405
  WARNING 03: negative offset ignored for Link YS02001904YS02001907
  
  *********************************************************
  NOTE: The summary statistics displayed in this report are
  based on results found at every computational time step,  
  not just on results from each reporting time step.
  *********************************************************
  
  ****************
  Analysis Options
  ****************
  Flow Units ............... LPS
  Process Models:
    Rainfall/Runoff ........ YES
    RDII ................... NO
    Snowmelt ............... NO
    Groundwater ............ NO
    Flow Routing ........... YES
    Ponding Allowed ........ NO
    Water Quality .......... NO
  Infiltration Method ...... HORTON
  Flow Routing Method ...... DYNWAVE
  Surcharge Method ......... EXTRAN
  Starting Date ............ 08/28/2015 08:00:00
  Ending Date .............. 08/28/2015 15:50:00
  Antecedent Dry Days ...... 8.0
  Report Time Step ......... 00:01:00
  Wet Time Step ............ 00:01:00
  Dry Time Step ............ 00:01:00
  Routing Time Step ........ 5.00 sec
  Variable Time Step ....... YES
  Maximum Trials ........... 8
  Number of Threads ........ 4
  Head Tolerance ........... 0.001500 m
  
  
  **************************        Volume         Depth
  Runoff Quantity Continuity     hectare-m            mm
  **************************     ---------       -------
  Total Precipitation ......         5.556        12.164
  Evaporation Loss .........         0.000         0.000
  Infiltration Loss ........         1.427         3.124
  Surface Runoff ...........         3.072         6.726
  Final Storage ............         1.058         2.316
  Continuity Error (%) .....        -0.016
  
  
  **************************        Volume        Volume
  Flow Routing Continuity        hectare-m      10^6 ltr
  **************************     ---------     ---------
  Dry Weather Inflow .......         0.616         6.165
  Wet Weather Inflow .......         3.071        30.708
  Groundwater Inflow .......         0.000         0.000
  RDII Inflow ..............         0.000         0.000
  External Inflow ..........         0.102         1.024
  External Outflow .........         1.546        15.457
  Flooding Loss ............         1.734        17.336
  Evaporation Loss .........         0.000         0.000
  Exfiltration Loss ........         0.000         0.000
  Initial Stored Volume ....         0.076         0.761
  Final Stored Volume ......         0.632         6.321
  Continuity Error (%) .....        -1.184
  
  
  *************************
  Highest Continuity Errors
  *************************
  Node HS02004842 (16.24%)
  Node YS02001884 (12.10%)
  Node JK-storage (-4.86%)
  Node YSB1171 (3.12%)
  Node HS02004817 (2.99%)
  
  
  ***************************
  Time-Step Critical Elements
  ***************************
  Link WS02006252WS02006251 (38.91%)
  Link 3 (35.42%)
  Link WS02006280WS02006229 (13.03%)
  Link WS02006238WS02006235 (3.42%)
  Link YS02006558YS02006561 (1.17%)
  
  
  ********************************
  Highest Flow Instability Indexes
  ********************************
  Link WS02006113WS02006111 (54)
  Link YS02001619YS02001622 (40)
  Link YS02163601YS02164001 (39)
  Link YS02163301YS02001633 (39)
  Link YS02001629YS02163301 (39)
  
  
  *************************
  Routing Time Step Summary
  *************************
  Minimum Time Step           :     0.44 sec
  Average Time Step           :     1.09 sec
  Maximum Time Step           :     5.00 sec
  Percent in Steady State     :    -0.00
  Average Iterations per Step :     4.53
  Percent Not Converging      :    20.47
  
  
  ***************************
  Subcatchment Runoff Summary
  ***************************
  
  ------------------------------------------------------------------------------------------------------------------------------
                            Total      Total      Total      Total     Imperv       Perv      Total       Total     Peak  Runoff
                           Precip      Runon       Evap      Infil     Runoff     Runoff     Runoff      Runoff   Runoff   Coeff
  Subcatchment                 mm         mm         mm         mm         mm         mm         mm    10^6 ltr      LPS
  ------------------------------------------------------------------------------------------------------------------------------
  sub0                      12.16       0.00       0.00       0.85      10.05       0.00      10.05        0.01     1.91   0.826
  sub1                      12.16       0.00       0.00       1.34       9.56       0.00       9.56        0.06    14.15   0.786
  sub2                      12.16       0.00       0.00       4.50       6.75       0.00       6.75        0.06    13.75   0.555
  sub3                      12.16       0.00       0.00       4.50       6.71       0.00       6.71        0.15    32.07   0.552
  sub4                      12.16       0.00       0.00       1.34       9.40       0.00       9.40        0.20    40.20   0.773
  sub5                      12.16       0.00       0.00       0.85       9.99       0.00       9.99        0.11    25.19   0.822
  sub7                      12.16       0.00       0.00       1.09       9.81       0.00       9.81        0.03     7.55   0.807
  sub8                      12.16       0.00       0.00       1.09       9.80       0.00       9.80        0.06    14.17   0.806
  sub9                      12.16       0.00       0.00       1.09       9.80       0.00       9.80        0.05    10.64   0.806
  sub10                     12.16       0.00       0.00       0.97       9.89       0.00       9.89        0.11    24.40   0.813
  sub11                     12.16       0.00       0.00       0.97       9.91       0.00       9.91        0.12    26.15   0.815
  sub12                     12.16       0.00       0.00       1.58       9.39       0.00       9.39        0.08    19.06   0.772
  sub14                     12.16       0.00       0.00       1.09       9.80       0.00       9.80        0.09    21.02   0.805
  sub15                     12.16       0.00       0.00       3.65       7.53       0.00       7.53        0.13    29.11   0.619
  sub16                     12.16       0.00       0.00       4.01       7.23       0.00       7.23        0.08    17.47   0.594
  sub17                     12.16       0.00       0.00       3.89       7.34       0.00       7.34        0.06    14.47   0.603
  sub22                     12.16       0.00       0.00       5.23       6.14       0.00       6.14        0.39    88.27   0.505
  sub23                     12.16       0.00       0.00       4.50       6.79       0.00       6.79        0.32    73.89   0.558
  sub60                     12.16       0.00       0.00       1.46       7.71       0.00       7.71        2.34   297.17   0.634
  sub61                     12.16       0.00       0.00       2.07       7.87       0.00       7.87        2.43   359.80   0.647
  sub62                     12.16       0.00       0.00       0.97       8.55       0.00       8.55        2.63   372.87   0.703
  sub63                     12.16       0.00       0.00       3.53       6.89       0.00       6.89        2.09   327.80   0.567
  sub64                     12.16       0.00       0.00       1.82       7.40       0.00       7.40        2.25   282.66   0.608
  sub65                     12.16       0.00       0.00       1.58       7.52       0.00       7.52        2.31   287.20   0.618
  sub66                     12.16       0.00       0.00       3.53       6.36       0.00       6.36        1.95   257.27   0.523
  sub67                     12.16       0.00       0.00       0.97       9.05       0.00       9.05        2.79   452.90   0.744
  sub68                     12.16       0.00       0.00       1.70       8.28       0.00       8.28        2.55   391.99   0.681
  sub69                     12.16       0.00       0.00       1.82       8.61       0.00       8.61        2.01   355.79   0.708
  sub70                     12.16       8.79       0.00       7.03      11.43       0.10      11.53        2.64   335.00   0.550
  sub71                     12.16       0.00       0.00       0.97       8.31       0.00       8.31        1.96   263.63   0.683
  sub72                     12.16       0.00       0.00       0.85       6.56       0.00       6.56        1.34   129.40   0.540
  sub73                     12.16      11.23       0.00       7.88      12.47       0.08      12.54        2.95   300.52   0.536
  sub74                     12.16       0.00       0.00       9.12       2.57       0.00       2.57        1.03   189.59   0.211
  
  
  ******************
  Node Depth Summary
  ******************
  
  ---------------------------------------------------------------------------------
                                 Average  Maximum  Maximum  Time of Max    Reported
                                   Depth    Depth      HGL   Occurrence   Max Depth
  Node                 Type       Meters   Meters   Meters  days hr:min      Meters
  ---------------------------------------------------------------------------------
  WS02001211           JUNCTION     0.65     0.75     5.59     0  00:21        0.75
  WS02001212           JUNCTION     0.37     0.45     5.51     0  00:21        0.45
  WS02001213           JUNCTION     0.60     0.68     5.44     0  03:10        0.68
  WS02003069           JUNCTION     0.41     0.51     5.10     0  03:09        0.51
  WS02003072           JUNCTION     0.48     0.58     4.95     0  03:10        0.58
  WS02003073           JUNCTION     0.29     0.35     4.42     0  03:11        0.35
  WS02003060           JUNCTION     0.37     0.45     5.39     0  03:09        0.45
  WS02003066           JUNCTION     0.21     0.28     5.83     0  03:08        0.28
  WS02003059           JUNCTION     0.66     0.74     5.43     0  03:10        0.74
  WS02003067           JUNCTION     0.53     0.67     5.99     0  03:08        0.67
  WS02004401           JUNCTION     0.62     0.78     6.78     0  03:05        0.78
  WS02004402           JUNCTION     0.65     0.81     6.77     0  03:05        0.81
  WS02004403           JUNCTION     0.67     0.83     6.76     0  03:05        0.83
  WS02004404           JUNCTION     0.75     0.91     6.76     0  03:05        0.91
  WS02004406           JUNCTION     0.76     0.91     6.74     0  03:05        0.91
  WS02004409           JUNCTION     0.44     0.60     6.37     0  03:06        0.60
  WS02004410           JUNCTION     0.46     0.62     6.34     0  03:07        0.62
  WS02004411           JUNCTION     0.48     0.63     6.31     0  03:07        0.63
  WS02004412           JUNCTION     0.49     0.65     6.29     0  03:07        0.65
  WS02004413           JUNCTION     0.65     0.81     6.28     0  03:08        0.81
  WS02004405           JUNCTION     0.75     0.90     6.75     0  03:05        0.90
  WS02006109           JUNCTION     0.69     0.87     7.49     0  03:03        0.87
  WS02006110           JUNCTION     0.70     0.85     7.43     0  03:03        0.85
  WS02006111           JUNCTION     0.20     0.26     6.97     0  03:04        0.26
  WS02006112           JUNCTION     0.78     0.97     6.85     0  03:04        0.97
  WS02006113           JUNCTION     0.30     0.41     7.30     0  03:03        0.41
  WS02006115           JUNCTION     0.51     0.68     6.82     0  03:04        0.68
  WS02006116           JUNCTION     0.59     0.76     6.80     0  03:05        0.76
  WS02006230           JUNCTION     0.64     0.85     7.60     0  05:18        0.85
  WS02006231           JUNCTION     0.41     0.59     7.71     0  05:18        0.59
  WS02006232           JUNCTION     0.54     0.74     7.78     0  05:19        0.74
  WS02006234           JUNCTION     0.45     0.69     7.85     0  05:19        0.69
  WS02006235           JUNCTION     0.48     0.73     7.89     0  05:19        0.73
  WS02006238           JUNCTION     0.50     0.76     7.90     0  05:19        0.76
  WS02006240           JUNCTION     0.39     0.69     7.98     0  05:19        0.69
  WS02006242           JUNCTION     0.44     0.76     8.03     0  05:16        0.76
  WS02006243           JUNCTION     0.32     0.65     8.07     0  05:19        0.65
  WS02006245           JUNCTION     0.31     0.63     8.11     0  05:19        0.63
  WS02006247           JUNCTION     0.34     0.64     8.14     0  05:19        0.64
  WS02006248           JUNCTION     0.29     0.58     8.17     0  05:20        0.58
  WS02006249           JUNCTION     0.32     0.60     8.20     0  05:20        0.60
  WS02006239           JUNCTION     0.45     0.74     7.94     0  05:19        0.74
  WS02006251           JUNCTION     0.31     0.62     8.29     0  05:19        0.62
  WS02006252           JUNCTION     0.26     0.59     8.83     0  05:15        0.58
  WS02006253           JUNCTION     0.34     0.64     8.29     0  05:19        0.64
  WS02006256           JUNCTION     0.94     1.20     8.13     0  06:20        1.20
  WS02004138           JUNCTION     0.15     0.19     7.44     0  00:20        0.19
  WS02004407           JUNCTION     0.20     0.27     6.58     0  03:06        0.27
  WS02006228           JUNCTION     0.68     0.89     7.54     0  03:02        0.89
  WS02006229           JUNCTION     0.65     0.87     7.56     0  03:02        0.87
  WS02006280           JUNCTION     0.06     0.19     8.46     0  03:02        0.19
  WS02006284           JUNCTION     0.35     0.55     8.95     0  03:02        0.55
  WS02006287           JUNCTION     0.08     0.28     9.24     0  03:01        0.28
  WSF200               JUNCTION     0.19     0.28     5.51     0  03:08        0.28
  HS02004901           JUNCTION     0.11     0.28    10.10     0  03:01        0.28
  HS02004881           JUNCTION     0.01     0.04     9.07     0  03:01        0.04
  HS02004876           JUNCTION     0.03     0.12     9.15     0  03:01        0.12
  HS02004870           JUNCTION     0.01     0.06     9.35     0  03:01        0.06
  HS02004862           JUNCTION     0.01     0.07     9.46     0  03:01        0.07
  HS02004856           JUNCTION     0.07     0.13     9.55     0  03:01        0.13
  HS02004852           JUNCTION     0.01     0.05     9.56     0  03:01        0.05
  HS02004848           JUNCTION     0.01     0.05     9.65     0  03:01        0.05
  HS02004842           JUNCTION     0.33     0.38     9.65     0  03:01        0.38
  HS02004837           JUNCTION     0.03     0.07     9.65     0  03:01        0.07
  HS02004830           JUNCTION     0.04     0.08     9.55     0  03:01        0.08
  HS02004824           JUNCTION     0.02     0.06     9.46     0  03:01        0.06
  HS02004817           JUNCTION     0.42     0.60     9.44     0  03:01        0.60
  HS02004807           JUNCTION     0.11     0.27     9.44     0  03:01        0.27
  HS02004802           JUNCTION     0.15     0.30     9.43     0  03:01        0.30
  HS02004799           JUNCTION     0.10     0.33     9.54     0  03:01        0.33
  HS02004792           JUNCTION     0.03     0.14     9.66     0  03:01        0.14
  HS02004788           JUNCTION     0.02     0.10    10.00     0  03:01        0.10
  HS02004785           JUNCTION     0.04     0.17    10.07     0  03:01        0.17
  HS02004777           JUNCTION     0.13     0.30    10.10     0  03:01        0.30
  HS02004770           JUNCTION     0.10     0.27    10.10     0  03:01        0.27
  HS02004480           JUNCTION     0.07     0.26     9.50     0  03:01        0.26
  HS02004479           JUNCTION     0.10     0.30     9.50     0  03:01        0.30
  HS02004478           JUNCTION     0.05     0.18     9.41     0  03:01        0.18
  YS02001745           JUNCTION     0.72     0.91     8.42     0  03:18        0.90
  YS02001748           JUNCTION     1.12     1.44     8.52     0  02:40        1.34
  YS02001751           JUNCTION     1.30     1.55     8.42     0  03:17        1.54
  YS02001754           JUNCTION     1.54     1.82     8.43     0  03:14        1.82
  YS02001762           JUNCTION     1.74     2.03     8.43     0  03:15        2.02
  YS02001765           JUNCTION     1.69     1.97     8.42     0  03:18        1.97
  YS02001767           JUNCTION     1.66     1.93     8.42     0  03:10        1.92
  YS02001770           JUNCTION     1.65     1.91     8.41     0  03:18        1.91
  YS02001774           JUNCTION     1.72     1.98     8.40     0  03:18        1.97
  YS02001779           JUNCTION     1.47     1.68     8.37     0  02:47        1.68
  YS02001882           JUNCTION     0.43     1.61     8.33     0  03:00        1.60
  YS02001884           JUNCTION     0.52     1.71     8.33     0  02:53        1.70
  YS02001759           JUNCTION     1.77     2.07     8.43     0  03:10        2.06
  YS02001887           JUNCTION     0.60     1.79     8.33     0  03:00        1.78
  YS02001890           JUNCTION     0.63     1.81     8.32     0  02:59        1.80
  YS02001898           JUNCTION     0.40     1.56     8.29     0  02:53        1.55
  YS02001901           JUNCTION     0.52     1.67     8.28     0  03:00        1.66
  YS02001904           JUNCTION     0.50     1.63     8.26     0  02:52        1.63
  YS02001907           JUNCTION     0.82     1.96     8.25     0  02:52        1.96
  YS02001910           JUNCTION     0.61     1.77     8.28     0  02:53        1.77
  YS02001915           JUNCTION     0.41     1.58     8.30     0  02:54        1.57
  YS02001918           JUNCTION     0.19     1.25     8.31     0  02:53        1.25
  YS02001619           JUNCTION     1.26     1.47     8.40     0  02:46        1.47
  YS02001629           JUNCTION     1.60     1.85     8.40     0  02:47        1.84
  YS02001641           JUNCTION     1.71     1.94     8.37     0  02:46        1.93
  YS02001644           JUNCTION     1.71     1.92     8.35     0  02:46        1.92
  YS02001652           JUNCTION     1.56     2.03     8.62     0  02:50        1.88
  YS02001655           JUNCTION     1.32     1.98     8.83     0  02:34        1.65
  YS02001920           JUNCTION     0.29     1.32     8.33     0  02:54        1.32
  YS02001923           JUNCTION     0.15     1.08     8.34     0  02:54        1.08
  YS02001926           JUNCTION     0.22     0.90     8.35     0  02:53        0.89
  YS02001929           JUNCTION     0.12     0.67     8.37     0  02:53        0.62
  YS02001658           JUNCTION     1.06     1.76     8.90     0  02:50        1.43
  YS02001661           JUNCTION     0.83     2.04     9.45     0  02:50        1.32
  YS02001664           JUNCTION     0.37     0.57     8.50     0  02:50        0.56
  YS02001622           JUNCTION     1.28     1.50     8.40     0  03:00        1.49
  YS02001633           JUNCTION     1.70     1.94     8.40     0  02:46        1.94
  YS02001649           JUNCTION     1.75     2.05     8.44     0  02:49        2.04
  YS02001757           JUNCTION     1.87     2.17     8.43     0  03:09        2.16
  YS02001895           JUNCTION     0.39     1.55     8.30     0  03:01        1.55
  YS02001625           JUNCTION     1.56     1.78     8.38     0  02:45        1.78
  YS02163301           JUNCTION     1.63     1.88     8.40     0  02:46        1.88
  YS02163601           JUNCTION     1.75     1.99     8.39     0  02:47        1.98
  YS02164001           JUNCTION     1.69     1.92     8.38     0  02:47        1.91
  YS02001647           JUNCTION     1.54     1.80     8.41     0  03:09        1.79
  YSB1154              JUNCTION     0.24     0.45     9.51     0  03:01        0.45
  YSB6556              JUNCTION     0.13     0.34     9.51     0  03:01        0.34
  YSB1174              JUNCTION     0.19     0.40     9.51     0  03:01        0.40
  YSB1171              JUNCTION     0.39     0.60     9.51     0  03:01        0.60
  YS02006553           JUNCTION     0.82     1.96     8.25     0  03:00        1.96
  YS02006561           JUNCTION     0.23     1.08     7.74     0  02:57        1.07
  YS02006556           JUNCTION     0.80     1.92     8.23     0  03:02        1.91
  YS02006558           JUNCTION     0.84     1.96     8.22     0  03:00        1.95
  YS02001783           JUNCTION     0.46     1.47     7.61     0  03:04        1.46
  YS02001784           JUNCTION     0.50     1.41     7.48     0  03:00        1.41
  YS02001786           JUNCTION     0.47     1.26     7.29     0  02:54        1.25
  YS02001788           JUNCTION     0.44     1.13     7.11     0  02:58        1.13
  YS02001790           JUNCTION     0.62     1.43     7.08     0  02:14        1.29
  YS02001791           JUNCTION     0.67     1.33     6.80     0  02:14        1.27
  YS02001793           JUNCTION     1.00     1.80     6.64     0  02:52        1.80
  WS02004139           JUNCTION     0.59     0.70     5.61     0  00:20        0.70
  WSC                  OUTFALL      0.28     0.35     1.02     0  03:11        0.35
  3                    OUTFALL      0.07     0.20     6.20     0  06:20        0.20
  4                    OUTFALL      0.01     0.10     7.10     0  05:20        0.10
  5                    OUTFALL      0.00     0.00     5.00     0  00:00        0.00
  JK-storage           STORAGE      3.53     5.80     6.60     0  02:15        5.80
  CC-storage           STORAGE      1.15     1.41     8.41     0  03:15        1.41
  XR-storage           STORAGE      7.10     7.72     5.72     0  02:54        7.72
  
  
  *******************
  Node Inflow Summary
  *******************
  
  -------------------------------------------------------------------------------------------------
                                  Maximum  Maximum                  Lateral       Total        Flow
                                  Lateral    Total  Time of Max      Inflow      Inflow     Balance
                                   Inflow   Inflow   Occurrence      Volume      Volume       Error
  Node                 Type           LPS      LPS  days hr:min    10^6 ltr    10^6 ltr     Percent
  -------------------------------------------------------------------------------------------------
  WS02001211           JUNCTION      7.35   382.38     0  00:20       0.207        6.86       0.327
  WS02001212           JUNCTION      0.00   379.05     0  00:21           0        6.83       0.211
  WS02001213           JUNCTION      0.00   378.49     0  00:21           0        6.82       0.257
  WS02003069           JUNCTION      0.32   756.86     0  03:09     0.00902        13.4       0.185
  WS02003072           JUNCTION      0.00   756.81     0  03:10           0        13.3       0.239
  WS02003073           JUNCTION      1.82   758.62     0  03:10      0.0514        13.3       0.268
  WS02003060           JUNCTION     16.53   756.51     0  03:08       0.466        13.4       0.175
  WS02003066           JUNCTION      0.00   449.91     0  03:08           0        6.14       0.073
  WS02003059           JUNCTION      0.00   377.07     0  00:22           0         6.8       0.445
  WS02003067           JUNCTION      0.00   449.87     0  03:08           0        6.15       0.153
  WS02004401           JUNCTION      0.00   453.71     0  03:04           0        6.37       0.313
  WS02004402           JUNCTION      0.00   453.13     0  03:05           0        6.35       0.298
  WS02004403           JUNCTION      0.00   452.90     0  03:05           0        6.34       0.274
  WS02004404           JUNCTION      0.16   452.70     0  03:05     0.00457        6.32       0.209
  WS02004406           JUNCTION      0.00   452.70     0  03:05           0        6.29       0.511
  WS02004409           JUNCTION      0.00   452.53     0  03:06           0        6.25       0.253
  WS02004410           JUNCTION      0.00   451.77     0  03:06           0        6.24       0.290
  WS02004411           JUNCTION      0.00   451.05     0  03:06           0        6.22       0.301
  WS02004412           JUNCTION      0.00   450.55     0  03:07           0         6.2       0.328
  WS02004413           JUNCTION      0.00   450.08     0  03:07           0        6.18       0.487
  WS02004405           JUNCTION      0.04   452.69     0  03:05     0.00107        6.31       0.313
  WS02006109           JUNCTION      1.23   446.12     0  03:02      0.0347        6.42       0.238
  WS02006110           JUNCTION      0.00   446.12     0  03:02           0         6.4       0.282
  WS02006111           JUNCTION      0.00   459.17     0  03:03           0        6.38       0.057
  WS02006112           JUNCTION     14.47   457.64     0  03:03      0.0629        6.44       0.424
  WS02006113           JUNCTION      0.00   446.27     0  03:03           0        6.38       0.116
  WS02006115           JUNCTION      0.00   455.70     0  03:03           0        6.41       0.279
  WS02006116           JUNCTION      0.00   454.44     0  03:04           0        6.39       0.270
  WS02006230           JUNCTION     10.28   396.86     0  05:20        0.29        4.53       0.207
  WS02006231           JUNCTION      0.00   387.19     0  05:12           0        4.25       0.214
  WS02006232           JUNCTION      0.00   387.30     0  05:12           0        4.26       0.307
  WS02006234           JUNCTION      0.00   389.07     0  05:12           0        4.27       0.128
  WS02006235           JUNCTION      0.00   389.26     0  05:12           0        4.31       0.175
  WS02006238           JUNCTION      0.00   343.64     0  07:30           0        2.78       0.191
  WS02006240           JUNCTION      0.00   337.59     0  07:30           0        2.76       0.228
  WS02006242           JUNCTION      0.00   334.74     0  07:30           0        2.76       0.239
  WS02006243           JUNCTION      0.00   330.20     0  07:31           0        2.74      -0.374
  WS02006245           JUNCTION      0.00   327.08     0  07:30           0        2.74       0.210
  WS02006247           JUNCTION      0.00   330.15     0  07:20           0        2.74       0.028
  WS02006248           JUNCTION      0.00   334.14     0  05:10           0        2.74      -0.101
  WS02006249           JUNCTION      0.00   401.39     0  05:17           0        2.89       0.165
  WS02006239           JUNCTION      0.00   341.93     0  07:30           0        2.77       0.238
  WS02006251           JUNCTION      0.08   401.61     0  05:19     0.00217        2.91      -0.004
  WS02006252           JUNCTION      0.00   400.00     0  05:10           0        2.52       0.003
  WS02006253           JUNCTION      1.91    80.98     0  03:01     0.00814       0.384       0.041
  WS02006256           JUNCTION      0.00   599.94     0  06:20           0        3.56       0.078
  WS02004138           JUNCTION      0.00   379.97     0  00:20           0        6.67       0.057
  WS02004407           JUNCTION      0.00   452.59     0  03:05           0        6.26       0.108
  WS02006228           JUNCTION      0.00   444.88     0  03:02           0        6.39       0.185
  WS02006229           JUNCTION      0.00   444.78     0  03:02           0        6.41       0.194
  WS02006280           JUNCTION      0.00   375.57     0  03:02           0        1.89       0.004
  WS02006284           JUNCTION      0.10   375.55     0  03:02      0.0027        1.89       0.064
  WS02006287           JUNCTION      0.00   375.28     0  03:01           0        1.89       0.038
  WSF200               JUNCTION      0.00   449.90     0  03:08           0        6.14       0.073
  HS02004901           JUNCTION     17.47    17.47     0  03:01      0.0757      0.0759       2.379
  HS02004881           JUNCTION      7.55    79.19     0  03:01      0.0331       0.357       0.029
  HS02004876           JUNCTION     14.15    72.10     0  03:01      0.0636       0.324       0.171
  HS02004870           JUNCTION     14.17    58.27     0  03:01      0.0626       0.261       0.043
  HS02004862           JUNCTION     13.95    44.46     0  03:01      0.0685       0.198       0.089
  HS02004856           JUNCTION     10.64    30.80     0  03:01      0.0471       0.131       1.114
  HS02004852           JUNCTION      0.00    20.44     0  03:01           0       0.084       0.069
  HS02004848           JUNCTION     32.07    32.07     0  03:01       0.151       0.151       0.032
  HS02004842           JUNCTION      0.00    11.42     0  03:01           0      0.0801      19.391
  HS02004837           JUNCTION     30.75    41.91     0  03:01       0.288       0.355       0.229
  HS02004830           JUNCTION      0.15    41.84     0  03:01     0.00423       0.346       0.359
  HS02004824           JUNCTION     40.25    81.79     0  03:01       0.198       0.542       0.100
  HS02004817           JUNCTION      0.60    82.19     0  03:01      0.0169       0.558       3.079
  HS02004807           JUNCTION     26.15   107.24     0  03:01       0.115       0.657       0.656
  HS02004802           JUNCTION      0.00   106.49     0  03:01           0       0.653       0.618
  HS02004799           JUNCTION     21.02   227.51     0  03:01      0.0933        1.06       0.236
  HS02004792           JUNCTION     88.55   207.33     0  03:01       0.396       0.966       0.043
  HS02004788           JUNCTION     30.78   119.37     0  03:01       0.177       0.571       0.068
  HS02004785           JUNCTION      0.15    89.79     0  03:01     0.00423       0.396       0.125
  HS02004777           JUNCTION      0.03    90.24     0  03:01    0.000846       0.397       1.326
  HS02004770           JUNCTION     73.89    90.93     0  03:01       0.324       0.398       0.787
  HS02004480           JUNCTION      0.00   269.28     0  03:01           0        1.25       0.099
  HS02004479           JUNCTION      0.00    42.82     0  03:02           0       0.204       0.360
  HS02004478           JUNCTION      0.00   375.18     0  03:01           0        1.89       0.018
  YS02001745           JUNCTION    297.18   322.81     0  02:39        2.34        2.34       0.465
  YS02001748           JUNCTION      0.04   498.30     0  02:39     0.00127        2.33       0.952
  YS02001751           JUNCTION      0.01   308.62     0  03:01     0.00031        2.31       1.027
  YS02001754           JUNCTION      0.26   308.84     0  03:01     0.00733        2.29       1.101
  YS02001762           JUNCTION      0.00   304.18     0  02:49           0        1.81       1.187
  YS02001765           JUNCTION      0.00   303.96     0  02:49           0        1.81       1.363
  YS02001767           JUNCTION      0.54   304.22     0  02:49      0.0151        1.83       1.975
  YS02001770           JUNCTION    373.02   488.45     0  03:19        2.63        3.04       1.048
  YS02001774           JUNCTION      0.00   488.39     0  03:19           0        1.61       1.576
  YS02001779           JUNCTION      0.01   489.60     0  03:19    0.000141        1.57       0.988
  YS02001882           JUNCTION      0.00    12.13     0  02:45           0      0.0152      16.407
  YS02001884           JUNCTION      0.00    22.23     0  02:44           0      0.0512      13.759
  YS02001759           JUNCTION    359.84   599.53     0  02:50        2.43         3.8       0.608
  YS02001887           JUNCTION    453.35   454.02     0  03:01         2.8        2.83       0.291
  YS02001890           JUNCTION      0.00   453.74     0  03:01           0        2.79       0.324
  YS02001898           JUNCTION      0.00   453.99     0  03:01           0        2.77       0.109
  YS02001901           JUNCTION      0.00   453.42     0  03:01           0        2.77       0.249
  YS02001904           JUNCTION      0.00   454.16     0  03:01           0        2.77       0.219
  YS02001907           JUNCTION      0.00   859.83     0  02:58           0        6.12       0.383
  YS02001910           JUNCTION      0.00   430.58     0  02:54           0        3.37       0.348
  YS02001915           JUNCTION    263.65   430.23     0  02:54        1.96        3.39       0.178
  YS02001918           JUNCTION      0.00   195.87     0  02:54           0        1.43       0.130
  YS02001619           JUNCTION    257.27   257.27     0  03:01        1.95        1.95       0.629
  YS02001629           JUNCTION      0.00   215.21     0  02:29           0        1.62       1.825
  YS02001641           JUNCTION      0.00   416.05     0  02:45           0        3.83       0.555
  YS02001644           JUNCTION    282.70  1208.03     0  03:18        2.25        9.03       0.293
  YS02001652           JUNCTION      0.00   363.92     0  03:01           0        2.05       1.165
  YS02001655           JUNCTION      0.15   402.27     0  02:30     0.00434        2.08       1.187
  YS02001920           JUNCTION      2.87   196.34     0  02:54      0.0809        1.42       0.207
  YS02001923           JUNCTION      0.04   208.91     0  02:54     0.00106        1.34       0.050
  YS02001926           JUNCTION      0.05   158.64     0  02:59     0.00147        1.34       0.245
  YS02001929           JUNCTION    129.40   129.40     0  03:01        1.34        1.34       0.040
  YS02001658           JUNCTION      0.00   616.79     0  02:34           0        2.11       0.957
  YS02001661           JUNCTION      0.00   655.40     0  02:50           0        2.71      -0.392
  YS02001664           JUNCTION    327.80   350.04     0  02:48        2.09        2.69       0.232
  YS02001622           JUNCTION      0.00   258.07     0  03:01           0        1.94       1.663
  YS02001633           JUNCTION    287.40   411.56     0  02:45        2.32        3.88       0.830
  YS02001649           JUNCTION      0.00   862.21     0  02:47           0        5.56       0.674
  YS02001757           JUNCTION      0.00  1650.19     0  02:47           0        8.26       1.130
  YS02001895           JUNCTION      0.00   453.84     0  03:01           0        2.78       0.176
  YS02001625           JUNCTION      0.00   257.12     0  03:00           0         1.9       2.068
  YS02163301           JUNCTION      0.00   199.03     0  02:32           0        1.59       1.529
  YS02163601           JUNCTION      0.11   412.34     0  02:45      0.0031        3.85       0.788
  YS02164001           JUNCTION      0.00   413.47     0  02:45           0        3.83       0.529
  YS02001647           JUNCTION      0.00   624.81     0  02:45           0        4.72       0.600
  YSB1154              JUNCTION     25.19    25.19     0  03:01       0.113       0.114       1.285
  YSB6556              JUNCTION      0.00    24.91     0  03:01           0       0.115       1.100
  YSB1174              JUNCTION     19.06    19.06     0  03:01      0.0821      0.0827       1.580
  YSB1171              JUNCTION      0.00    43.19     0  03:01           0       0.203       3.219
  YS02006553           JUNCTION      0.00   667.37     0  03:17           0         5.9       0.261
  YS02006561           JUNCTION      0.00   964.54     0  03:00           0        8.42       0.005
  YS02006556           JUNCTION      0.00   667.72     0  03:17           0         5.9       0.182
  YS02006558           JUNCTION    392.87   965.41     0  03:01        2.57        8.45       0.064
  YS02001783           JUNCTION      0.00   964.35     0  03:01           0        8.42       0.026
  YS02001784           JUNCTION      1.06   965.46     0  02:59      0.0299        8.44       0.042
  YS02001786           JUNCTION      0.06   965.46     0  03:01     0.00159        8.44       0.040
  YS02001788           JUNCTION      0.07   965.44     0  02:59       0.002        8.44       0.022
  YS02001790           JUNCTION      0.15   965.77     0  03:00     0.00437        8.44       0.023
  YS02001791           JUNCTION      0.00   965.46     0  03:00           0        8.44       0.017
  YS02001793           JUNCTION      0.00   966.10     0  03:00           0        8.44      -0.003
  WS02004139           JUNCTION      0.32   379.76     0  00:20     0.00905        6.67       0.399
  WSC                  OUTFALL       0.00   758.58     0  03:11           0        13.3       0.000
  3                    OUTFALL       0.00   479.76     0  06:20           0           2       0.000
  4                    OUTFALL       0.00    95.36     0  05:20           0       0.143       0.000
  5                    OUTFALL       0.00     0.00     0  00:00           0           0       0.000 ltr
  JK-storage           STORAGE       0.00   965.90     0  03:01           0        8.59      -4.631
  CC-storage           STORAGE       0.00  1650.86     0  02:47           0        6.34       1.015
  XR-storage           STORAGE     690.11   690.11     0  03:01        9.61        10.2      -0.002
  
  
  **********************
  Node Surcharge Summary
  **********************
  
  Surcharging occurs when water rises above the top of the highest conduit.
  ---------------------------------------------------------------------
                                               Max. Height   Min. Depth
                                   Hours       Above Crown    Below Rim
  Node                 Type      Surcharged         Meters       Meters
  ---------------------------------------------------------------------
  WS02006109           JUNCTION        0.71          0.049        1.771
  WS02006232           JUNCTION        0.59          0.038        1.442
  WS02006235           JUNCTION        0.21          0.018        1.272
  WS02006238           JUNCTION        0.46          0.037        1.393
  WS02006242           JUNCTION        0.36          0.031        0.789
  WS02006252           JUNCTION        0.78          0.193        0.907
  WS02006228           JUNCTION        0.61          0.055        2.145
  YS02001748           JUNCTION        5.12          0.362        0.828
  YS02001751           JUNCTION        5.29          0.546        0.654
  YS02001754           JUNCTION        5.48          0.774        0.376
  YS02001762           JUNCTION        5.64          1.027        0.123
  YS02001765           JUNCTION        5.62          0.972        0.128
  YS02001767           JUNCTION        5.59          0.928        0.102
  YS02001770           JUNCTION        5.58          0.881        0.039
  YS02001774           JUNCTION        5.63          0.975        0.075
  YS02001779           JUNCTION        5.47          0.680        0.000
  YS02001882           JUNCTION        0.81          0.610        0.220
  YS02001884           JUNCTION        0.85          0.651        0.219
  YS02001759           JUNCTION        5.66          1.068        0.142
  YS02001887           JUNCTION        0.94          0.738        0.212
  YS02001890           JUNCTION        0.97          0.760        0.000
  YS02001898           JUNCTION        0.76          0.528        0.212
  YS02001901           JUNCTION        0.90          0.671        0.199
  YS02001904           JUNCTION        0.87          0.634        0.216
  YS02001907           JUNCTION        1.50          0.950        0.000
  YS02001910           JUNCTION        1.02          0.774        0.326
  YS02001915           JUNCTION        0.79          0.585        0.415
  YS02001918           JUNCTION        0.54          0.248        0.562
  YS02001619           JUNCTION        5.29          0.475        0.135
  YS02001629           JUNCTION        5.29          0.468        0.002
  YS02001641           JUNCTION        5.62          0.935        0.165
  YS02001644           JUNCTION        5.62          0.920        0.000
  YS02001652           JUNCTION        5.52          0.995        0.135
  YS02001655           JUNCTION        5.31          0.982        0.218
  YS02001920           JUNCTION        0.57          0.324        0.816
  YS02001658           JUNCTION        5.15          0.757        0.543
  YS02001661           JUNCTION        0.17          0.974        0.416
  YS02001622           JUNCTION        5.31          0.498        0.122
  YS02001633           JUNCTION        5.61          0.925        0.135
  YS02001649           JUNCTION        5.64          1.050        0.000
  YS02001757           JUNCTION        5.74          1.169        0.041
  YS02001895           JUNCTION        0.78          0.554        0.196
  YS02001625           JUNCTION        5.55          0.780        0.000
  YS02163301           JUNCTION        5.59          0.883        0.147
  YS02163601           JUNCTION        5.64          0.993        0.087
  YS02164001           JUNCTION        5.61          0.919        0.181
  YS02001647           JUNCTION        5.53          0.800        0.100
  YS02006553           JUNCTION        1.58          0.965        0.225
  YS02006561           JUNCTION        0.67          0.280        0.870
  YS02006556           JUNCTION        1.25          0.880        0.470
  YS02006558           JUNCTION        1.21          0.858        0.542
  YS02001783           JUNCTION        1.48          0.668        0.932
  YS02001784           JUNCTION        1.52          0.613        0.877
  YS02001786           JUNCTION        1.49          0.461        0.969
  YS02001788           JUNCTION        1.45          0.331        1.149
  YS02001790           JUNCTION        3.61          0.631        0.526
  YS02001791           JUNCTION        3.85          0.527        1.393
  YS02001793           JUNCTION        3.98          0.804        1.796
  
  
  *********************
  Node Flooding Summary
  *********************
  
  Flooding refers to all water that overflows a node, whether it ponds or not.
  --------------------------------------------------------------------------
                                                             Total   Maximum
                                 Maximum   Time of Max       Flood    Ponded
                        Hours       Rate    Occurrence      Volume     Depth
  Node                 Flooded       LPS   days hr:min    10^6 ltr    Meters
  --------------------------------------------------------------------------
  YS02001779              2.67    489.54      0  03:19       1.555     0.000
  YS02001890              0.01      0.32      0  03:00       0.000     0.000
  YS02001907              0.38    275.12      0  02:58       0.212     0.000
  YS02001644              4.38   1207.85      0  03:18       7.249     0.000
  YS02001649              0.02     33.41      0  02:50       0.000     0.000
  YS02001625              0.88    169.12      0  03:01       0.252     0.000
  JK-storage              2.87    965.61      0  02:59       5.452     0.000
  XR-storage              4.33    405.02      0  03:01       2.617     0.000
  
  
  **********************
  Storage Volume Summary
  **********************
  
  --------------------------------------------------------------------------------------------------
                         Average     Avg  Evap Exfil       Maximum     Max    Time of Max    Maximum
                          Volume    Pcnt  Pcnt  Pcnt        Volume    Pcnt     Occurrence    Outflow
  Storage Unit           1000 m3    Full  Loss  Loss       1000 m3    Full    days hr:min        LPS
  --------------------------------------------------------------------------------------------------
  JK-storage               0.178      61     0     0         0.291     100       0  02:15     599.94
  CC-storage               3.202      20     0     0         3.937      25       0  03:15     400.00
  XR-storage               0.852      92     0     0         0.926     100       0  02:54     379.97
  
  
  ***********************
  Outfall Loading Summary
  ***********************
  
  -----------------------------------------------------------
                         Flow       Avg       Max       Total
                         Freq      Flow      Flow      Volume
  Outfall Node           Pcnt       LPS       LPS    10^6 ltr
  -----------------------------------------------------------
  WSC                  100.00    516.65    758.58      13.313
  3                     72.53    163.57    479.76       2.001
  4                     14.28     53.05     95.36       0.143
  5                      0.00      0.00      0.00       0.000
  -----------------------------------------------------------
  System                46.70    733.27    993.78      15.457
  
  
  ********************
  Link Flow Summary
  ********************
  
  -----------------------------------------------------------------------------
                                 Maximum  Time of Max   Maximum    Max/    Max/
                                  |Flow|   Occurrence   |Veloc|    Full    Full
  Link                 Type          LPS  days hr:min     m/sec    Flow   Depth
  -----------------------------------------------------------------------------
  WS02003066WSF200     CONDUIT    449.90     0  03:08      2.64    0.08    0.21
  WS02006287WS02006284 CONDUIT    375.46     0  03:02      1.98    0.17    0.29
  WS02006284WS02006280 CONDUIT    375.57     0  03:02      2.22    0.16    0.27
  WS02006280WS02006229 CONDUIT    375.60     0  03:02      3.58    0.08    0.19
  WS02006229WS02006228 CONDUIT    444.88     0  03:02      0.89    1.47    1.00
  WS02006256WS02006235 CONDUIT    158.11     0  00:13      2.30    1.67    1.00
  WS02006253WS02006251 CONDUIT     80.93     0  03:01      0.62    0.24    0.89
  WS02006252WS02006251 CONDUIT    400.50     0  07:25      3.19    1.47    1.00
  WS02006251WS02006249 CONDUIT    401.39     0  05:17      1.15    1.16    0.87
  WS02006249WS02006248 CONDUIT    334.14     0  05:10      1.09    1.83    0.83
  WS02006248WS02006247 CONDUIT    330.15     0  07:20      1.04    0.72    0.86
  WS02006247WS02006245 CONDUIT    327.08     0  07:30      0.99    2.59    0.90
  WS02006245WS02006243 CONDUIT    330.20     0  07:31      0.99    0.98    0.91
  WS02006243WS02006242 CONDUIT    334.74     0  07:30      0.91    0.72    0.97
  WS02006242WS02006240 CONDUIT    337.59     0  07:30      0.90    1.34    0.99
  WS02006240WS02006239 CONDUIT    341.93     0  07:30      0.94    1.08    0.99
  WS02006239WS02006238 CONDUIT    343.64     0  07:30      0.91    1.10    1.00
  WS02006238WS02006235 CONDUIT    343.91     0  07:30      0.91    0.77    1.00
  WS02006235WS02006234 CONDUIT    389.07     0  05:12      1.02    4.10    0.98
  WS02006234WS02006232 CONDUIT    387.30     0  05:12      1.02    0.78    0.99
  WS02006232WS02006231 CONDUIT    387.19     0  05:12      1.06    0.81    0.91
  WS02006231WS02006230 CONDUIT    386.58     0  05:20      1.32    5.86    0.76
  WS02006230WS02006229 CONDUIT    396.89     0  05:20      1.03    8.83    1.00
  WS02006228WS02006109 CONDUIT    444.89     0  03:02      0.89    1.94    1.00
  WS02006116WS02004401 CONDUIT    453.71     0  03:04      0.73    0.63    0.77
  WS02006115WS02006116 CONDUIT    454.44     0  03:04      0.79    0.58    0.69
  WS02006113WS02006111 CONDUIT    459.17     0  03:03      2.31    0.55    0.42
  WS02006112WS02006115 CONDUIT    455.70     0  03:03      0.66    0.27    0.82
  WS02006111WS02006112 CONDUIT    447.52     0  03:04      1.29    0.21    0.66
  WS02006110WS02006113 CONDUIT    446.27     0  03:03      1.10    0.41    0.76
  WS02006109WS02006110 CONDUIT    446.12     0  03:02      0.90    0.86    0.96
  WS02004411WS02004412 CONDUIT    450.55     0  03:07      0.85    0.64    0.64
  WS02004401WS02004402 CONDUIT    453.13     0  03:05      0.77    0.54    0.80
  WS02004413WS02003067 CONDUIT    449.87     0  03:08      1.01    0.19    0.55
  WS02004412WS02004413 CONDUIT    450.08     0  03:07      0.74    0.30    0.73
  WS02004410WS02004411 CONDUIT    451.05     0  03:06      0.87    0.62    0.63
  WS02004409WS02004410 CONDUIT    451.77     0  03:06      0.90    0.58    0.61
  WS02004407WS02004409 CONDUIT    452.53     0  03:06      1.37    0.16    0.44
  WS02004406WS02004407 CONDUIT    452.59     0  03:05      0.94    0.20    0.59
  WS02004405WS02004406 CONDUIT    452.70     0  03:05      0.62    0.89    0.90
  WS02004404WS02004405 CONDUIT    452.65     0  03:05      0.84    4.43    0.90
  WS02004403WS02004404 CONDUIT    452.53     0  03:05      0.74    0.33    0.87
  WS02004402WS02004403 CONDUIT    452.90     0  03:05      0.75    0.65    0.82
  WS02004139WS02001211 CONDUIT    375.03     0  00:20      0.81    0.47    0.56
  WS02004138WS02004139 CONDUIT    379.44     0  00:20      3.34    0.08    0.42
  WS02003067WS02003066 CONDUIT    449.91     0  03:08      1.09    0.14    0.39
  WS02001213WS02003059 CONDUIT    377.07     0  00:22      0.78    0.62    0.70
  WS02001212WS02001213 CONDUIT    378.49     0  00:21      1.31    0.58    0.40
  WS02001211WS02001212 CONDUIT    379.05     0  00:21      0.77    0.29    0.60
  WS02003072WS02003073 CONDUIT    756.79     0  03:10      1.60    1.63    0.44
  WS02003069WS02003072 CONDUIT    756.81     0  03:10      1.51    0.36    0.45
  WS02003060WS02003069 CONDUIT    756.54     0  03:09      1.77    0.30    0.40
  WS02003059WS02003060 CONDUIT    375.21     0  00:23      0.93    0.24    0.60
  HS02004901HS02004770 CONDUIT     17.70     0  03:01      0.07    0.07    0.39
  HS02004876HS02004881 CONDUIT     71.90     0  03:01      0.92    0.76    0.11
  HS02004870HS02004876 CONDUIT     58.04     0  03:01      0.63    0.04    0.13
  HS02004842HS02004848 CONDUIT     11.42     0  03:01      0.05    0.01    0.30
  HS02004837HS02004842 CONDUIT     11.95     0  03:02      0.42    0.01    0.32
  HS02004830HS02004837 CONDUIT     41.69     0  03:01      0.56    0.04    0.11
  HS02004824HS02004830 CONDUIT     41.67     0  03:01      0.58    0.05    0.10
  HS02004817HS02004824 CONDUIT     81.59     0  03:01      0.25    0.04    0.47
  HS02004770HS02004777 CONDUIT     90.21     0  03:01      0.32    0.16    0.41
  HS02004799HS02004480 CONDUIT    226.98     0  03:01      0.78    0.29    0.42
  HS02004792HS02004799 CONDUIT    206.61     0  03:01      0.88    0.13    0.33
  HS02004788HS02004792 CONDUIT    118.95     0  03:01      1.01    0.08    0.17
  HS02004785HS02004788 CONDUIT     89.52     0  03:02      0.66    0.67    0.19
  HS02004777HS02004785 CONDUIT     89.64     0  03:01      0.38    0.11    0.33
  HS02004480HS02004478 CONDUIT    269.13     0  03:01      1.20    1.13    0.32
  HS02004479HS02004480 CONDUIT     44.18     0  03:02      0.23    0.04    0.40
  HS02004862HS02004870 CONDUIT     44.23     0  03:01      0.64    0.05    0.10
  HS02004848HS02004852 CONDUIT     20.44     0  03:01      0.44    0.02    0.07
  HS02004856HS02004862 CONDUIT     30.57     0  03:01      0.47    0.03    0.09
  HS02004852HS02004856 CONDUIT     20.26     0  03:01      0.24    0.02    0.12
  HS02004802HS02004478 CONDUIT    106.59     0  03:02      0.45    0.09    0.35
  HS02004478WS02006287 CONDUIT    375.28     0  03:01      1.68    0.11    0.25
  HS02004817HS02004807 CONDUIT     82.18     0  03:01      0.19    0.05    0.62
  HS02004807HS02004802 CONDUIT    106.49     0  03:01      0.38    0.20    0.40
  YS02001759YS02001757 CONDUIT    599.17     0  02:50      0.76    0.43    1.00
  YS02001762YS02001759 CONDUIT    303.74     0  02:49      0.39    0.35    1.00
  YS02001765YS02001762 CONDUIT    304.18     0  02:49      0.39    0.29    1.00
  YS02001770YS02001767 CONDUIT    303.68     0  02:49      0.39    1.20    1.00
  YS02001774YS02001770 CONDUIT    488.39     0  03:19      0.62    0.31    1.00
  YS02001779YS02001774 CONDUIT    489.59     0  03:19      0.62    0.25    1.00
  YS02001649YS02001757 CONDUIT    864.28     0  02:47      1.10    0.52    1.00
  YS02001767YS02001765 CONDUIT    303.96     0  02:49      0.39    0.38    1.00
  YS02006561YS02001783 CONDUIT    964.35     0  03:01      1.92    0.50    1.00
  YS02001783YS02001784 CONDUIT    964.40     0  02:59      1.92    1.33    1.00
  YS02001784YS02001785 CONDUIT    965.41     0  03:01      1.92    2.25    1.00
  YS02001788YS02001790 CONDUIT    965.62     0  03:00      1.94    0.71    1.00
  YS02001790YS02001791 CONDUIT    965.46     0  03:00      2.28    1.05    1.00
  YS02001791YS02001793 CONDUIT    966.10     0  03:00      4.39    0.41    1.00
  YS02001910YS02001907 CONDUIT    430.27     0  02:54      0.55    0.24    1.00
  YS02001786YS02001788 CONDUIT    965.37     0  02:59      1.92    1.86    1.00
  YS02001915YS02001910 CONDUIT    430.58     0  02:54      0.55    0.21    1.00
  YS02001918YS02001915 CONDUIT    197.01     0  02:54      0.44    0.11    1.00
  YS02001923YS02001920 CONDUIT    193.47     0  02:54      0.68    0.09    1.00
  YS02001926YS02001923 CONDUIT    208.87     0  02:54      0.79    0.30    0.88
  YS02001929YS02001926 CONDUIT    158.59     0  02:59      0.84    0.08    0.78
  YS02001920YS02001918 CONDUIT    195.87     0  02:54      0.67    0.19    1.00
  YS02001629YS02163301 CONDUIT    199.03     0  02:32      0.25    0.25    1.00
  YS02001619YS02001622 CONDUIT    258.07     0  03:01      0.61    0.38    1.00
  YS02001622YS02001625 CONDUIT    257.12     0  03:00      0.33    0.14    1.00
  YS02001625YS02001629 CONDUIT    215.21     0  02:29      0.28    0.10    1.00
  YS02163301YS02001633 CONDUIT    199.69     0  02:37      0.25    0.19    1.00
  YS02163601YS02164001 CONDUIT    413.47     0  02:45      0.53    0.37    1.00
  YS02164001YS02001641 CONDUIT    416.05     0  02:45      0.53    0.57    1.00
  YS02001641YS02001644 CONDUIT    415.11     0  02:45      0.53    1.34    1.00
  YS02001647YS02001649 CONDUIT    624.63     0  02:45      0.80    0.33    1.00
  YS02006553YS02006556 CONDUIT    667.72     0  03:17      0.85    0.57    1.00
  YS02006556YS02006558 CONDUIT    668.28     0  03:17      0.85    0.53    1.00
  YSB6556YSB1171       CONDUIT     24.82     0  03:03      0.09    0.03    0.67
  YS02001907YS02006553 CONDUIT    667.37     0  03:17      0.74    0.79    1.00
  YS02006558YS02006561 CONDUIT    964.54     0  03:00      3.41    2.13    1.00
  YS02001633YS02163601 CONDUIT    412.23     0  02:45      0.52    0.43    1.00
  YS02001644YS02001647 CONDUIT    624.81     0  02:45      0.80    0.37    1.00
  YS02001745YS02001748 CONDUIT    498.26     0  02:39      1.48    0.19    0.95
  YS02001748YS02001751 CONDUIT    308.61     0  03:01      1.05    0.16    1.00
  YS02001751YS02001754 CONDUIT    308.58     0  03:01      0.88    0.15    1.00
  YS02001754YS02001757 CONDUIT    307.70     0  03:01      0.39    0.12    1.00
  YS02001882YS02001884 CONDUIT     12.13     0  02:45      0.09    0.01    1.00
  YS02001884YS02001887 CONDUIT     22.23     0  02:44      0.05    0.03    1.00
  YS02001890YS02001895 CONDUIT    453.84     0  03:01      0.58    0.21    1.00
  YS02001895YS02001898 CONDUIT    453.99     0  03:01      0.58    0.79    1.00
  YS02001898YS02001901 CONDUIT    453.42     0  03:01      0.58    0.29    1.00
  YS02001901YS02001904 CONDUIT    454.16     0  03:01      0.58    0.70    1.00
  YS02001904YS02001907 CONDUIT    453.75     0  03:01      0.58    0.16    1.00
  YS02001887YS02001890 CONDUIT    453.74     0  03:01      0.58    0.78    1.00
  YS02001652YS02001649 CONDUIT    366.21     0  03:01      0.50    0.18    1.00
  YS02001655YS02001652 CONDUIT    363.92     0  03:01      0.93    0.18    1.00
  YS02001658YS02001655 CONDUIT    402.11     0  02:30      1.21    0.17    1.00
  YS02001661YS02001658 CONDUIT    616.79     0  02:34      1.56    0.24    1.00
  YS02001664YS02001661 CONDUIT    655.40     0  02:50      1.46    0.21    0.74
  YSB1154YSB6556       CONDUIT     24.91     0  03:01      0.18    0.04    0.56
  YSB1174YSB1171       CONDUIT     18.78     0  03:01      0.07    0.03    0.68
  YSB1171HS02004479    CONDUIT     42.82     0  03:02      0.54    0.03    0.53
  HS02004881HS02006253 CONDUIT     79.16     0  03:01      2.19    0.02    0.22
  YS02001793JiankangQianchi CONDUIT    965.90     0  03:01     10.66    0.08    1.00
  YS02001757CaochengTiaoxuchi CONDUIT   1650.86     0  02:47      2.13    0.73    1.00
  WSF200WS02003060     CONDUIT    449.98     0  03:08      1.70    0.10    0.30
  1                    CONDUIT    758.58     0  03:11      3.09    0.26    0.35
  2                    CONDUIT     95.36     0  05:20      4.78    0.23    0.33
  3                    CONDUIT    479.76     0  06:20      9.72    0.76    0.66
  4                    CONDUIT      0.00     0  00:00      0.00    0.00    0.00
  CC-Pump-1            PUMP       200.00     0  05:00              1.00
  CC-Pump-2            PUMP       200.00     0  05:10              1.00
  JK-Pump-1            PUMP       300.00     0  06:20              1.00
  JK-Pump-2            PUMP       300.00     0  04:40              1.00
  XR-Pump-1            PUMP        95.00     0  00:00              1.00
  XR-Pump-2            PUMP        95.00     0  00:20              1.00
  XR-Pump-3            PUMP        95.00     0  00:00              1.00
  XR-Pump-4            PUMP        95.00     0  00:00              1.00
  
  
  ***************************
  Flow Classification Summary
  ***************************
  
  -------------------------------------------------------------------------------------
                      Adjusted    ---------- Fraction of Time in Flow Class ---------- 
                       /Actual         Up    Down  Sub   Sup   Up    Down  Norm  Inlet 
  Conduit               Length    Dry  Dry   Dry   Crit  Crit  Crit  Crit  Ltd   Ctrl  
  -------------------------------------------------------------------------------------
  WS02003066WSF200        1.00   0.06  0.02  0.00  0.00  0.92  0.00  0.00  0.77  0.00
  WS02006287WS02006284    1.00   0.05  0.02  0.00  0.73  0.21  0.00  0.00  0.65  0.00
  WS02006284WS02006280    1.00   0.05  0.00  0.00  0.00  0.00  0.00  0.95  0.00  0.00
  WS02006280WS02006229    1.00   0.05  0.00  0.00  0.00  0.00  0.00  0.95  0.00  0.00
  WS02006229WS02006228    1.00   0.00  0.00  0.00  1.00  0.00  0.00  0.00  0.00  0.00
  WS02006256WS02006235    1.00   0.00  0.00  0.00  0.99  0.00  0.00  0.00  0.00  0.00
  WS02006253WS02006251    1.00   0.03  0.01  0.00  0.95  0.00  0.00  0.00  0.00  0.00
  WS02006252WS02006251    1.00   0.24  0.00  0.00  0.00  0.00  0.76  0.00  0.00  0.00
  WS02006251WS02006249    1.00   0.00  0.00  0.00  1.00  0.00  0.00  0.00  0.32  0.00
  WS02006249WS02006248    1.00   0.00  0.00  0.00  0.81  0.00  0.19  0.00  0.00  0.00
  WS02006248WS02006247    1.00   0.00  0.00  0.00  0.97  0.00  0.00  0.03  0.25  0.00
  WS02006247WS02006245    1.00   0.01  0.00  0.00  0.97  0.00  0.00  0.03  0.00  0.00
  WS02006245WS02006243    1.00   0.01  0.00  0.00  0.93  0.00  0.00  0.06  0.01  0.00
  WS02006243WS02006242    1.00   0.01  0.01  0.00  0.98  0.00  0.00  0.00  0.40  0.00
  WS02006242WS02006240    1.00   0.01  0.00  0.00  0.99  0.00  0.00  0.00  0.00  0.00
  WS02006240WS02006239    1.00   0.01  0.00  0.00  0.95  0.00  0.00  0.05  0.01  0.00
  WS02006239WS02006238    1.00   0.01  0.00  0.00  0.99  0.00  0.00  0.00  0.05  0.00
  WS02006238WS02006235    1.00   0.01  0.00  0.00  0.99  0.00  0.00  0.00  0.00  0.00
  WS02006235WS02006234    1.00   0.01  0.00  0.00  0.95  0.00  0.05  0.00  0.00  0.00
  WS02006234WS02006232    1.00   0.01  0.00  0.00  0.99  0.00  0.00  0.00  0.05  0.00
  WS02006232WS02006231    1.00   0.01  0.00  0.00  0.99  0.00  0.00  0.00  0.00  0.00
  WS02006231WS02006230    1.00   0.01  0.00  0.00  0.35  0.00  0.65  0.00  0.00  0.00
  WS02006230WS02006229    1.00   0.00  0.00  0.00  0.98  0.00  0.00  0.02  0.00  0.00
  WS02006228WS02006109    1.00   0.00  0.00  0.00  1.00  0.00  0.00  0.00  0.01  0.00
  WS02006116WS02004401    1.00   0.03  0.00  0.00  0.97  0.00  0.00  0.00  0.00  0.00
  WS02006115WS02006116    1.00   0.03  0.00  0.00  0.96  0.00  0.00  0.01  0.00  0.00
  WS02006113WS02006111    1.00   0.02  0.00  0.00  0.00  0.98  0.00  0.00  0.18  0.00
  WS02006112WS02006115    1.00   0.03  0.01  0.00  0.97  0.00  0.00  0.00  0.00  0.00
  WS02006111WS02006112    1.00   0.03  0.00  0.00  0.97  0.00  0.00  0.00  0.96  0.00
  WS02006110WS02006113    1.00   0.00  0.02  0.00  0.98  0.00  0.00  0.00  0.00  0.00
  WS02006109WS02006110    1.00   0.00  0.00  0.00  0.99  0.00  0.00  0.00  0.00  0.00
  WS02004411WS02004412    1.00   0.05  0.00  0.00  0.95  0.00  0.00  0.00  0.00  0.00
  WS02004401WS02004402    1.00   0.03  0.00  0.00  0.97  0.00  0.00  0.00  0.00  0.00
  WS02004413WS02003067    1.00   0.05  0.02  0.00  0.00  0.00  0.93  0.00  0.00  0.00
  WS02004412WS02004413    1.00   0.05  0.00  0.00  0.95  0.00  0.00  0.00  0.03  0.00
  WS02004410WS02004411    1.00   0.05  0.00  0.00  0.95  0.00  0.00  0.00  0.03  0.00
  WS02004409WS02004410    1.00   0.05  0.00  0.00  0.95  0.00  0.00  0.00  0.01  0.00
  WS02004407WS02004409    1.00   0.05  0.00  0.00  0.95  0.00  0.00  0.00  0.87  0.00
  WS02004406WS02004407    1.00   0.00  0.05  0.00  0.95  0.00  0.00  0.00  0.00  0.00
  WS02004405WS02004406    1.00   0.00  0.00  0.00  1.00  0.00  0.00  0.00  0.03  0.00
  WS02004404WS02004405    1.00   0.00  0.00  0.00  1.00  0.00  0.00  0.00  0.00  0.00
  WS02004403WS02004404    1.00   0.00  0.03  0.00  0.97  0.00  0.00  0.00  0.01  0.00
  WS02004402WS02004403    1.00   0.03  0.00  0.00  0.97  0.00  0.00  0.00  0.00  0.00
  WS02004139WS02001211    1.00   0.00  0.00  0.00  1.00  0.00  0.00  0.00  0.00  0.00
  WS02004138WS02004139    1.00   0.00  0.00  0.00  1.00  0.00  0.00  0.00  1.00  0.00
  WS02003067WS02003066    1.00   0.07  0.01  0.00  0.92  0.00  0.00  0.00  0.00  0.00
  WS02001213WS02003059    1.00   0.00  0.00  0.00  1.00  0.00  0.00  0.00  0.00  0.00
  WS02001212WS02001213    1.00   0.00  0.00  0.00  0.70  0.00  0.30  0.00  0.00  0.00
  WS02001211WS02001212    1.00   0.00  0.00  0.00  1.00  0.00  0.00  0.00  0.00  0.00
  WS02003072WS02003073    1.00   0.00  0.00  0.00  0.00  0.00  0.00  1.00  0.00  0.00
  WS02003069WS02003072    1.00   0.00  0.00  0.00  1.00  0.00  0.00  0.00  0.22  0.00
  WS02003060WS02003069    1.00   0.00  0.00  0.00  1.00  0.00  0.00  0.00  0.13  0.00
  WS02003059WS02003060    1.00   0.00  0.00  0.00  1.00  0.00  0.00  0.00  0.01  0.00
  HS02004901HS02004770    1.00   0.05  0.00  0.00  0.95  0.00  0.00  0.00  0.00  0.00
  HS02004876HS02004881    1.00   0.00  0.00  0.00  0.95  0.04  0.00  0.00  0.00  0.00
  HS02004870HS02004876    1.00   0.00  0.00  0.00  0.99  0.01  0.00  0.00  0.95  0.00
  HS02004842HS02004848    1.00   0.00  0.05  0.00  0.95  0.00  0.00  0.00  0.58  0.00
  HS02004837HS02004842    1.00   0.00  0.00  0.00  1.00  0.00  0.00  0.00  0.11  0.00
  HS02004830HS02004837    1.00   0.00  0.00  0.00  1.00  0.00  0.00  0.00  0.99  0.00
  HS02004824HS02004830    1.00   0.00  0.00  0.00  1.00  0.00  0.00  0.00  0.00  0.00
  HS02004817HS02004824    1.00   0.00  0.00  0.00  1.00  0.00  0.00  0.00  1.00  0.00
  HS02004770HS02004777    1.00   0.00  0.05  0.00  0.95  0.00  0.00  0.00  0.03  0.00
  HS02004799HS02004480    1.00   0.00  0.02  0.00  0.94  0.00  0.04  0.00  0.00  0.00
  HS02004792HS02004799    1.00   0.00  0.00  0.00  1.00  0.00  0.00  0.00  0.98  0.00
  HS02004788HS02004792    1.00   0.00  0.00  0.00  1.00  0.00  0.00  0.00  0.98  0.00
  HS02004785HS02004788    1.00   0.00  0.00  0.00  1.00  0.00  0.00  0.00  0.00  0.00
  HS02004777HS02004785    1.00   0.00  0.00  0.00  1.00  0.00  0.00  0.00  0.14  0.00
  HS02004480HS02004478    1.00   0.05  0.00  0.00  0.78  0.00  0.00  0.17  0.00  0.00
  HS02004479HS02004480    1.00   0.02  0.00  0.00  0.98  0.00  0.00  0.00  0.12  0.00
  HS02004862HS02004870    1.00   0.00  0.00  0.00  1.00  0.00  0.00  0.00  0.05  0.00
  HS02004848HS02004852    1.00   0.05  0.00  0.00  0.95  0.00  0.00  0.00  0.61  0.00
  HS02004856HS02004862    1.00   0.00  0.07  0.00  0.93  0.00  0.00  0.00  0.80  0.00
  HS02004852HS02004856    1.00   0.05  0.00  0.00  0.95  0.00  0.00  0.00  0.85  0.00
  HS02004802HS02004478    1.00   0.05  0.00  0.00  0.95  0.00  0.00  0.00  0.03  0.00
  HS02004478WS02006287    1.00   0.06  0.00  0.00  0.82  0.12  0.00  0.00  0.66  0.00
  HS02004817HS02004807    1.00   0.00  0.05  0.00  0.95  0.00  0.00  0.00  0.01  0.00
  HS02004807HS02004802    1.00   0.05  0.00  0.00  0.94  0.00  0.00  0.00  0.00  0.00
  YS02001759YS02001757    1.00   0.00  0.00  0.00  1.00  0.00  0.00  0.00  0.16  0.00
  YS02001762YS02001759    1.00   0.00  0.00  0.00  1.00  0.00  0.00  0.00  0.04  0.00
  YS02001765YS02001762    1.00   0.00  0.00  0.00  1.00  0.00  0.00  0.00  0.16  0.00
  YS02001770YS02001767    1.00   0.00  0.00  0.00  1.00  0.00  0.00  0.00  0.00  0.00
  YS02001774YS02001770    1.00   0.00  0.05  0.00  0.95  0.00  0.00  0.00  0.04  0.00
  YS02001779YS02001774    1.00   0.00  0.00  0.00  1.00  0.00  0.00  0.00  0.21  0.00
  YS02001649YS02001757    1.00   0.00  0.00  0.00  1.00  0.00  0.00  0.00  0.17  0.00
  YS02001767YS02001765    1.00   0.00  0.00  0.00  1.00  0.00  0.00  0.00  0.00  0.00
  YS02006561YS02001783    1.00   0.07  0.00  0.00  0.47  0.46  0.00  0.00  0.58  0.00
  YS02001783YS02001784    1.00   0.00  0.07  0.00  0.93  0.00  0.00  0.00  0.01  0.00
  YS02001784YS02001785    1.00   0.00  0.00  0.00  1.00  0.00  0.00  0.00  0.20  0.00
  YS02001788YS02001790    1.00   0.00  0.00  0.00  0.63  0.37  0.00  0.00  0.44  0.00
  YS02001790YS02001791    1.00   0.00  0.00  0.00  0.57  0.43  0.00  0.00  0.25  0.00
  YS02001791YS02001793    1.00   0.00  0.00  0.00  0.58  0.42  0.00  0.00  0.01  0.00
  YS02001910YS02001907    1.00   0.00  0.00  0.00  0.99  0.00  0.00  0.01  0.13  0.00
  YS02001786YS02001788    1.00   0.00  0.00  0.00  0.62  0.38  0.00  0.00  0.00  0.00
  YS02001915YS02001910    1.00   0.00  0.00  0.00  0.99  0.01  0.00  0.00  0.18  0.00
  YS02001918YS02001915    1.00   0.00  0.00  0.00  0.99  0.00  0.00  0.00  0.58  0.00
  YS02001923YS02001920    1.00   0.00  0.00  0.00  1.00  0.00  0.00  0.00  0.85  0.00
  YS02001926YS02001923    1.00   0.00  0.04  0.00  0.07  0.00  0.89  0.00  0.00  0.00
  YS02001929YS02001926    1.00   0.00  0.05  0.00  0.95  0.00  0.00  0.00  0.78  0.00
  YS02001920YS02001918    1.00   0.00  0.00  0.00  1.00  0.00  0.00  0.00  0.00  0.00
  YS02001629YS02163301    1.00   0.06  0.00  0.00  0.94  0.00  0.00  0.00  0.00  0.00
  YS02001619YS02001622    1.00   0.05  0.00  0.00  0.95  0.00  0.00  0.00  0.00  0.00
  YS02001622YS02001625    1.00   0.05  0.00  0.00  0.95  0.00  0.00  0.00  0.07  0.00
  YS02001625YS02001629    1.00   0.05  0.02  0.00  0.91  0.00  0.02  0.00  0.00  0.00
  YS02163301YS02001633    1.00   0.00  0.06  0.00  0.94  0.00  0.00  0.00  0.00  0.00
  YS02163601YS02164001    1.00   0.00  0.04  0.00  0.96  0.00  0.00  0.00  0.00  0.00
  YS02164001YS02001641    1.00   0.00  0.04  0.00  0.96  0.00  0.00  0.00  0.06  0.00
  YS02001641YS02001644    1.00   0.00  0.00  0.00  1.00  0.00  0.00  0.00  0.00  0.00
  YS02001647YS02001649    1.00   0.00  0.07  0.00  0.93  0.00  0.00  0.00  0.01  0.00
  YS02006553YS02006556    1.00   0.00  0.00  0.00  1.00  0.00  0.00  0.00  0.03  0.00
  YS02006556YS02006558    1.00   0.00  0.00  0.00  1.00  0.00  0.00  0.00  0.00  0.00
  YSB6556YSB1171          1.00   0.03  0.02  0.00  0.95  0.00  0.00  0.00  0.00  0.00
  YS02001907YS02006553    1.00   0.00  0.00  0.00  0.99  0.00  0.00  0.00  0.00  0.00
  YS02006558YS02006561    1.00   0.07  0.00  0.00  0.09  0.85  0.00  0.00  0.49  0.00
  YS02001633YS02163601    1.00   0.00  0.00  0.00  1.00  0.00  0.00  0.00  0.16  0.00
  YS02001644YS02001647    1.00   0.00  0.07  0.00  0.93  0.00  0.00  0.00  0.00  0.00
  YS02001745YS02001748    1.00   0.00  0.00  0.00  0.89  0.00  0.00  0.10  0.04  0.00
  YS02001748YS02001751    1.00   0.00  0.00  0.00  0.97  0.03  0.00  0.00  0.15  0.00
  YS02001751YS02001754    1.00   0.00  0.00  0.00  0.92  0.00  0.00  0.07  0.02  0.00
  YS02001754YS02001757    1.00   0.00  0.00  0.00  1.00  0.00  0.00  0.00  0.20  0.00
  YS02001882YS02001884    1.00   0.06  0.00  0.00  0.94  0.00  0.00  0.00  0.00  0.00
  YS02001884YS02001887    1.00   0.04  0.01  0.00  0.95  0.00  0.00  0.00  0.00  0.00
  YS02001890YS02001895    1.00   0.00  0.06  0.00  0.94  0.00  0.00  0.00  0.00  0.00
  YS02001895YS02001898    1.00   0.06  0.00  0.00  0.93  0.00  0.01  0.00  0.00  0.00
  YS02001898YS02001901    1.00   0.06  0.00  0.00  0.94  0.00  0.00  0.00  0.02  0.00
  YS02001901YS02001904    1.00   0.06  0.00  0.00  0.94  0.00  0.00  0.00  0.00  0.00
  YS02001904YS02001907    1.00   0.00  0.06  0.00  0.94  0.00  0.00  0.00  0.00  0.00
  YS02001887YS02001890    1.00   0.00  0.00  0.00  0.99  0.00  0.01  0.00  0.00  0.00
  YS02001652YS02001649    1.00   0.00  0.00  0.00  1.00  0.00  0.00  0.00  0.18  0.00
  YS02001655YS02001652    1.00   0.00  0.00  0.00  0.93  0.00  0.00  0.07  0.02  0.00
  YS02001658YS02001655    1.00   0.00  0.06  0.00  0.91  0.03  0.00  0.00  0.11  0.00
  YS02001661YS02001658    1.00   0.05  0.00  0.00  0.89  0.05  0.00  0.00  0.06  0.00
  YS02001664YS02001661    1.00   0.05  0.00  0.00  0.91  0.04  0.00  0.00  0.21  0.00
  YSB1154YSB6556          1.00   0.05  0.00  0.00  0.95  0.00  0.00  0.00  0.02  0.00
  YSB1174YSB1171          1.00   0.03  0.01  0.00  0.96  0.00  0.00  0.00  0.00  0.00
  YSB1171HS02004479       1.00   0.02  0.00  0.00  0.97  0.00  0.00  0.01  0.11  0.00
  HS02004881HS02006253    1.00   0.03  0.00  0.00  0.52  0.02  0.00  0.43  0.33  0.00
  YS02001793JiankangQianchi    1.00   0.00  0.00  0.00  0.68  0.31  0.00  0.00  0.17  0.00
  YS02001757CaochengTiaoxuchi    1.00   0.00  0.09  0.00  0.91  0.00  0.00  0.00  0.00  0.00
  WSF200WS02003060        1.00   0.00  0.06  0.00  0.78  0.16  0.00  0.00  0.52  0.00
  1                       1.00   0.00  0.00  0.00  0.00  1.00  0.00  0.00  0.32  0.00
  2                       1.00   0.86  0.00  0.00  0.00  0.14  0.00  0.00  0.02  0.00
  3                       1.00   0.27  0.00  0.00  0.00  0.73  0.00  0.00  0.05  0.00
  4                       1.00   1.00  0.00  0.00  0.00  0.00  0.00  0.00  0.00  0.00
  
  
  *************************
  Conduit Surcharge Summary
  *************************
  
  ----------------------------------------------------------------------------
                                                           Hours        Hours 
                         --------- Hours Full --------   Above Full   Capacity
  Conduit                Both Ends  Upstream  Dnstream   Normal Flow   Limited
  ----------------------------------------------------------------------------
  WS02006229WS02006228        0.61      0.80      0.61      3.05         0.61
  WS02006256WS02006235        4.67      4.67      7.08      3.03         0.01
  WS02006252WS02006251        0.49      0.49      0.78      0.71         0.01
  WS02006251WS02006249        0.01      0.01      0.01      0.48         0.01
  WS02006249WS02006248        0.01      0.01      0.01      2.07         0.01
  WS02006247WS02006245        0.01      0.01      0.01      2.66         0.01
  WS02006243WS02006242        0.01      0.01      0.36      0.01         0.01
  WS02006242WS02006240        0.01      0.01      0.54      0.77         0.01
  WS02006240WS02006239        0.01      0.01      0.01      0.05         0.01
  WS02006239WS02006238        0.43      0.43      0.45      0.15         0.12
  WS02006238WS02006235        0.35      0.35      0.58      0.01         0.01
  WS02006235WS02006234        0.01      0.01      0.21      4.03         0.01
  WS02006234WS02006232        0.01      0.01      0.59      0.01         0.01
  WS02006232WS02006231        0.01      0.01      0.59      0.01         0.01
  WS02006231WS02006230        0.01      0.01      0.01      4.27         0.01
  WS02006230WS02006229        1.33      2.41      1.33      5.42         1.33
  WS02006228WS02006109        0.71      1.10      0.71      4.32         0.71
  WS02006111WS02006112        0.01      0.01      3.14      0.01         0.01
  WS02006110WS02006113        0.01      0.01      0.95      0.01         0.01
  WS02006109WS02006110        0.01      0.01      1.10      0.01         0.01
  WS02004404WS02004405        0.01      0.01      0.01      5.75         0.01
  WS02003072WS02003073        0.01      0.01      0.01      4.55         0.01
  HS02004480HS02004478        0.01      0.01      0.01      0.25         0.01
  YS02001759YS02001757        5.66      5.66      5.74      0.01         0.01
  YS02001762YS02001759        5.64      5.64      5.66      0.01         0.01
  YS02001765YS02001762        5.62      5.62      5.64      0.01         0.01
  YS02001770YS02001767        5.59      5.59      5.59      0.21         0.68
  YS02001774YS02001770        5.58      5.58      5.63      0.01         0.01
  YS02001779YS02001774        5.47      5.47      5.63      0.01         0.01
  YS02001649YS02001757        5.64      5.64      5.74      0.01         0.01
  YS02001767YS02001765        5.59      5.59      5.62      0.01         0.01
  YS02006561YS02001783        0.67      0.67      1.48      0.01         0.01
  YS02001783YS02001784        1.48      1.48      1.52      1.06         1.08
  YS02001784YS02001785        1.49      1.52      1.49      2.10         1.48
  YS02001788YS02001790        1.45      1.45      3.61      0.01         0.01
  YS02001790YS02001791        3.61      3.61      3.85      0.50         0.49
  YS02001791YS02001793        3.85      3.85      4.02      0.01         0.01
  YS02001910YS02001907        1.02      1.02      1.50      0.01         0.01
  YS02001786YS02001788        1.45      1.49      1.45      1.68         1.45
  YS02001915YS02001910        0.79      0.79      1.02      0.01         0.01
  YS02001918YS02001915        0.54      0.54      0.79      0.01         0.01
  YS02001923YS02001920        0.34      0.34      0.57      0.01         0.01
  YS02001920YS02001918        0.54      0.54      0.57      0.01         0.01
  YS02001629YS02163301        5.57      5.57      5.59      0.01         0.01
  YS02001619YS02001622        5.29      5.29      5.31      0.01         0.01
  YS02001622YS02001625        5.31      5.31      5.55      0.01         0.01
  YS02001625YS02001629        5.29      5.29      5.55      0.01         0.01
  YS02163301YS02001633        5.59      5.59      5.61      0.01         0.01
  YS02163601YS02164001        5.61      5.61      5.64      0.01         0.01
  YS02164001YS02001641        5.61      5.61      5.62      0.01         0.03
  YS02001641YS02001644        5.62      5.62      5.62      1.22         1.29
  YS02001647YS02001649        5.53      5.53      5.64      0.01         0.01
  YS02006553YS02006556        1.25      1.25      1.58      0.01         0.01
  YS02006556YS02006558        1.40      1.40      1.65      0.01         0.01
  YS02001907YS02006553        2.10      2.10      2.31      0.01         0.01
  YS02006558YS02006561        0.90      1.21      0.90      1.93         0.90
  YS02001633YS02163601        5.61      5.61      5.64      0.01         0.01
  YS02001644YS02001647        5.53      5.53      5.62      0.01         0.01
  YS02001745YS02001748        0.01      0.01      5.12      0.01         0.01
  YS02001748YS02001751        5.16      5.16      5.29      0.01         0.01
  YS02001751YS02001754        5.29      5.29      5.48      0.01         0.01
  YS02001754YS02001757        5.53      5.53      5.74      0.01         0.01
  YS02001882YS02001884        0.81      0.81      0.85      0.01         0.01
  YS02001884YS02001887        0.90      0.90      0.94      0.01         0.01
  YS02001890YS02001895        0.78      0.78      1.04      0.01         0.01
  YS02001895YS02001898        0.76      0.76      0.78      0.01         0.01
  YS02001898YS02001901        0.79      0.79      0.90      0.01         0.01
  YS02001901YS02001904        0.87      0.87      0.90      0.01         0.01
  YS02001904YS02001907        0.87      0.87      1.60      0.01         0.01
  YS02001887YS02001890        0.97      0.97      1.00      0.01         0.01
  YS02001652YS02001649        5.54      5.54      5.64      0.01         0.01
  YS02001655YS02001652        5.30      5.30      5.52      0.01         0.01
  YS02001658YS02001655        5.15      5.15      5.30      0.01         0.01
  YS02001661YS02001658        0.15      0.15      5.15      0.01         0.01
  YS02001664YS02001661        0.01      0.01      1.28      0.01         0.01
  YS02001793JiankangQianchi        3.98      3.98      4.77      0.01         0.01
  YS02001757CaochengTiaoxuchi        5.01      5.01      5.74      0.01         0.01
  
  
  ***************
  Pumping Summary
  ***************
  
  ---------------------------------------------------------------------------------------------------------
                                                  Min       Avg       Max     Total     Power    % Time Off
                        Percent   Number of      Flow      Flow      Flow    Volume     Usage    Pump Curve
  Pump                 Utilized   Start-Ups       LPS       LPS       LPS  10^6 ltr     Kw-hr    Low   High
  ---------------------------------------------------------------------------------------------------------
  CC-Pump-1               34.04           5      0.00    128.37    200.00     1.200      1.06    0.0    0.0
  CC-Pump-2               36.17           4      0.00    133.90    200.00     1.320      1.14    0.0    0.0
  JK-Pump-1               48.94           7      0.00    147.42    300.00     1.696     17.65    0.0    0.0
  JK-Pump-2               53.19           7      0.00    156.53    300.00     1.861     18.58    0.0    0.0
  XR-Pump-1               80.85           5      0.00     82.58     95.00     1.910     15.06    0.0    0.0
  XR-Pump-2               82.97           4      0.00     68.98     95.00     1.738     16.34    0.0    0.0
  XR-Pump-3               93.60           7      0.00     72.80     95.00     2.138     20.28    0.0    0.0
  XR-Pump-4               48.94           7      0.00     64.85     95.00     0.884      6.83    0.0    0.0
  

  Analysis begun on:  Wed Dec 22 09:49:24 2021
  Analysis ended on:  Wed Dec 22 09:49:27 2021
  Total elapsed time: 00:00:03