
  EPA STORM WATER MANAGEMENT MODEL - VERSION 5.1 (Build 5.3.0.dev0)
  --------------------------------------------------------------

  WARNING 04: minimum elevation drop used for Conduit WS02004404WS02004405
  WARNING 03: negative offset ignored for Link YS02001904YS02001907
  
  *********************************************************
  NOTE: The summary statistics displayed in this report are
  based on results found at every computational time step,  
  not just on results from each reporting time step.
  *********************************************************
  
  ****************
  Analysis Options
  ****************
  Flow Units ............... LPS
  Process Models:
    Rainfall/Runoff ........ YES
    RDII ................... NO
    Snowmelt ............... NO
    Groundwater ............ NO
    Flow Routing ........... YES
    Ponding Allowed ........ NO
    Water Quality .......... NO
  Infiltration Method ...... HORTON
  Flow Routing Method ...... DYNWAVE
  Surcharge Method ......... EXTRAN
  Starting Date ............ 08/28/2015 08:00:00
  Ending Date .............. 08/28/2015 15:50:00
  Antecedent Dry Days ...... 8.0
  Report Time Step ......... 00:01:00
  Wet Time Step ............ 00:01:00
  Dry Time Step ............ 00:01:00
  Routing Time Step ........ 5.00 sec
  Variable Time Step ....... YES
  Maximum Trials ........... 8
  Number of Threads ........ 4
  Head Tolerance ........... 0.001500 m
  
  
  **************************        Volume         Depth
  Runoff Quantity Continuity     hectare-m            mm
  **************************     ---------       -------
  Total Precipitation ......         5.556        12.164
  Evaporation Loss .........         0.000         0.000
  Infiltration Loss ........         1.427         3.124
  Surface Runoff ...........         3.072         6.726
  Final Storage ............         1.058         2.316
  Continuity Error (%) .....        -0.016
  
  
  **************************        Volume        Volume
  Flow Routing Continuity        hectare-m      10^6 ltr
  **************************     ---------     ---------
  Dry Weather Inflow .......         0.616         6.165
  Wet Weather Inflow .......         3.071        30.708
  Groundwater Inflow .......         0.000         0.000
  RDII Inflow ..............         0.000         0.000
  External Inflow ..........         0.102         1.024
  External Outflow .........         1.618        16.180
  Flooding Loss ............         1.691        16.906
  Evaporation Loss .........         0.000         0.000
  Exfiltration Loss ........         0.000         0.000
  Initial Stored Volume ....         0.076         0.761
  Final Stored Volume ......         0.637         6.369
  Continuity Error (%) .....        -2.064
  
  
  *************************
  Highest Continuity Errors
  *************************
  Node HS02004842 (16.24%)
  Node YS02001884 (12.03%)
  Node JK-storage (-8.57%)
  Node YSB1171 (3.12%)
  Node HS02004817 (2.99%)
  
  
  ***************************
  Time-Step Critical Elements
  ***************************
  Link 3 (45.50%)
  Link WS02006252WS02006251 (30.20%)
  Link WS02006280WS02006229 (11.99%)
  Link WS02006238WS02006235 (3.77%)
  Link YS02006556YS02006558 (1.49%)
  
  
  ********************************
  Highest Flow Instability Indexes
  ********************************
  Link WS02006113WS02006111 (50)
  Link YS02163301YS02001633 (39)
  Link YS02001619YS02001622 (39)
  Link YS02001629YS02163301 (38)
  Link YS02163601YS02164001 (38)
  
  
  *************************
  Routing Time Step Summary
  *************************
  Minimum Time Step           :     0.50 sec
  Average Time Step           :     1.02 sec
  Maximum Time Step           :     5.00 sec
  Percent in Steady State     :    -0.00
  Average Iterations per Step :     4.48
  Percent Not Converging      :    19.82
  
  
  ***************************
  Subcatchment Runoff Summary
  ***************************
  
  ------------------------------------------------------------------------------------------------------------------------------
                            Total      Total      Total      Total     Imperv       Perv      Total       Total     Peak  Runoff
                           Precip      Runon       Evap      Infil     Runoff     Runoff     Runoff      Runoff   Runoff   Coeff
  Subcatchment                 mm         mm         mm         mm         mm         mm         mm    10^6 ltr      LPS
  ------------------------------------------------------------------------------------------------------------------------------
  sub0                      12.16       0.00       0.00       0.85      10.05       0.00      10.05        0.01     1.91   0.826
  sub1                      12.16       0.00       0.00       1.34       9.56       0.00       9.56        0.06    14.15   0.786
  sub2                      12.16       0.00       0.00       4.50       6.75       0.00       6.75        0.06    13.75   0.555
  sub3                      12.16       0.00       0.00       4.50       6.71       0.00       6.71        0.15    32.07   0.552
  sub4                      12.16       0.00       0.00       1.34       9.40       0.00       9.40        0.20    40.20   0.773
  sub5                      12.16       0.00       0.00       0.85       9.99       0.00       9.99        0.11    25.19   0.822
  sub7                      12.16       0.00       0.00       1.09       9.81       0.00       9.81        0.03     7.55   0.807
  sub8                      12.16       0.00       0.00       1.09       9.80       0.00       9.80        0.06    14.17   0.806
  sub9                      12.16       0.00       0.00       1.09       9.80       0.00       9.80        0.05    10.64   0.806
  sub10                     12.16       0.00       0.00       0.97       9.89       0.00       9.89        0.11    24.40   0.813
  sub11                     12.16       0.00       0.00       0.97       9.91       0.00       9.91        0.12    26.15   0.815
  sub12                     12.16       0.00       0.00       1.58       9.39       0.00       9.39        0.08    19.06   0.772
  sub14                     12.16       0.00       0.00       1.09       9.80       0.00       9.80        0.09    21.02   0.805
  sub15                     12.16       0.00       0.00       3.65       7.53       0.00       7.53        0.13    29.11   0.619
  sub16                     12.16       0.00       0.00       4.01       7.23       0.00       7.23        0.08    17.47   0.594
  sub17                     12.16       0.00       0.00       3.89       7.34       0.00       7.34        0.06    14.47   0.603
  sub22                     12.16       0.00       0.00       5.23       6.14       0.00       6.14        0.39    88.27   0.505
  sub23                     12.16       0.00       0.00       4.50       6.79       0.00       6.79        0.32    73.89   0.558
  sub60                     12.16       0.00       0.00       1.46       7.71       0.00       7.71        2.34   297.17   0.634
  sub61                     12.16       0.00       0.00       2.07       7.87       0.00       7.87        2.43   359.80   0.647
  sub62                     12.16       0.00       0.00       0.97       8.55       0.00       8.55        2.63   372.87   0.703
  sub63                     12.16       0.00       0.00       3.53       6.89       0.00       6.89        2.09   327.80   0.567
  sub64                     12.16       0.00       0.00       1.82       7.40       0.00       7.40        2.25   282.66   0.608
  sub65                     12.16       0.00       0.00       1.58       7.52       0.00       7.52        2.31   287.20   0.618
  sub66                     12.16       0.00       0.00       3.53       6.36       0.00       6.36        1.95   257.27   0.523
  sub67                     12.16       0.00       0.00       0.97       9.05       0.00       9.05        2.79   452.90   0.744
  sub68                     12.16       0.00       0.00       1.70       8.28       0.00       8.28        2.55   391.99   0.681
  sub69                     12.16       0.00       0.00       1.82       8.61       0.00       8.61        2.01   355.79   0.708
  sub70                     12.16       8.79       0.00       7.03      11.43       0.10      11.53        2.64   335.00   0.550
  sub71                     12.16       0.00       0.00       0.97       8.31       0.00       8.31        1.96   263.63   0.683
  sub72                     12.16       0.00       0.00       0.85       6.56       0.00       6.56        1.34   129.40   0.540
  sub73                     12.16      11.23       0.00       7.88      12.47       0.08      12.54        2.95   300.52   0.536
  sub74                     12.16       0.00       0.00       9.12       2.57       0.00       2.57        1.03   189.59   0.211
  
  
  ******************
  Node Depth Summary
  ******************
  
  ---------------------------------------------------------------------------------
                                 Average  Maximum  Maximum  Time of Max    Reported
                                   Depth    Depth      HGL   Occurrence   Max Depth
  Node                 Type       Meters   Meters   Meters  days hr:min      Meters
  ---------------------------------------------------------------------------------
  WS02001211           JUNCTION     0.65     0.76     5.60     0  05:01        0.76
  WS02001212           JUNCTION     0.37     0.46     5.53     0  05:02        0.46
  WS02001213           JUNCTION     0.60     0.70     5.46     0  05:02        0.70
  WS02003069           JUNCTION     0.42     0.51     5.10     0  03:09        0.51
  WS02003072           JUNCTION     0.48     0.58     4.95     0  03:10        0.58
  WS02003073           JUNCTION     0.29     0.35     4.42     0  03:11        0.35
  WS02003060           JUNCTION     0.37     0.45     5.39     0  03:09        0.45
  WS02003066           JUNCTION     0.22     0.28     5.83     0  03:08        0.28
  WS02003059           JUNCTION     0.66     0.75     5.43     0  05:02        0.75
  WS02003067           JUNCTION     0.55     0.67     5.99     0  03:08        0.67
  WS02004401           JUNCTION     0.63     0.78     6.78     0  03:05        0.78
  WS02004402           JUNCTION     0.66     0.81     6.77     0  03:05        0.81
  WS02004403           JUNCTION     0.69     0.83     6.76     0  03:05        0.83
  WS02004404           JUNCTION     0.76     0.91     6.76     0  03:05        0.91
  WS02004406           JUNCTION     0.77     0.91     6.74     0  03:05        0.91
  WS02004409           JUNCTION     0.45     0.60     6.37     0  03:06        0.60
  WS02004410           JUNCTION     0.47     0.62     6.34     0  03:07        0.62
  WS02004411           JUNCTION     0.49     0.63     6.31     0  03:07        0.63
  WS02004412           JUNCTION     0.51     0.65     6.29     0  03:07        0.65
  WS02004413           JUNCTION     0.67     0.81     6.28     0  03:08        0.81
  WS02004405           JUNCTION     0.76     0.90     6.75     0  03:05        0.90
  WS02006109           JUNCTION     0.71     0.87     7.49     0  03:02        0.87
  WS02006110           JUNCTION     0.71     0.85     7.43     0  03:03        0.85
  WS02006111           JUNCTION     0.20     0.26     6.97     0  03:04        0.26
  WS02006112           JUNCTION     0.80     0.97     6.85     0  03:04        0.97
  WS02006113           JUNCTION     0.31     0.41     7.30     0  03:03        0.41
  WS02006115           JUNCTION     0.52     0.68     6.82     0  03:04        0.68
  WS02006116           JUNCTION     0.60     0.76     6.80     0  03:05        0.76
  WS02006230           JUNCTION     0.66     0.85     7.60     0  05:49        0.85
  WS02006231           JUNCTION     0.43     0.59     7.71     0  05:49        0.59
  WS02006232           JUNCTION     0.56     0.74     7.78     0  05:48        0.74
  WS02006234           JUNCTION     0.47     0.69     7.85     0  05:48        0.69
  WS02006235           JUNCTION     0.50     0.73     7.90     0  05:48        0.73
  WS02006238           JUNCTION     0.53     0.76     7.91     0  05:48        0.76
  WS02006240           JUNCTION     0.43     0.69     7.99     0  05:49        0.69
  WS02006242           JUNCTION     0.48     0.77     8.03     0  05:49        0.77
  WS02006243           JUNCTION     0.37     0.66     8.08     0  05:50        0.66
  WS02006245           JUNCTION     0.35     0.63     8.12     0  05:50        0.63
  WS02006247           JUNCTION     0.37     0.64     8.14     0  05:49        0.64
  WS02006248           JUNCTION     0.32     0.58     8.17     0  05:50        0.58
  WS02006249           JUNCTION     0.35     0.60     8.20     0  05:50        0.60
  WS02006239           JUNCTION     0.48     0.74     7.95     0  05:48        0.74
  WS02006251           JUNCTION     0.34     0.62     8.29     0  05:50        0.62
  WS02006252           JUNCTION     0.30     0.59     8.83     0  05:02        0.59
  WS02006253           JUNCTION     0.37     0.64     8.29     0  05:49        0.64
  WS02006256           JUNCTION     0.96     1.20     8.14     0  05:41        1.20
  WS02004138           JUNCTION     0.15     0.19     7.44     0  05:00        0.19
  WS02004407           JUNCTION     0.21     0.27     6.58     0  03:06        0.27
  WS02006228           JUNCTION     0.70     0.89     7.54     0  03:02        0.89
  WS02006229           JUNCTION     0.67     0.87     7.56     0  03:02        0.87
  WS02006280           JUNCTION     0.06     0.19     8.46     0  03:02        0.19
  WS02006284           JUNCTION     0.35     0.55     8.95     0  03:02        0.55
  WS02006287           JUNCTION     0.08     0.28     9.24     0  03:01        0.28
  WSF200               JUNCTION     0.20     0.28     5.51     0  03:08        0.28
  HS02004901           JUNCTION     0.11     0.28    10.10     0  03:01        0.28
  HS02004881           JUNCTION     0.01     0.04     9.07     0  03:01        0.04
  HS02004876           JUNCTION     0.03     0.12     9.15     0  03:01        0.12
  HS02004870           JUNCTION     0.01     0.06     9.35     0  03:01        0.06
  HS02004862           JUNCTION     0.01     0.07     9.46     0  03:01        0.07
  HS02004856           JUNCTION     0.07     0.13     9.55     0  03:01        0.13
  HS02004852           JUNCTION     0.01     0.05     9.56     0  03:01        0.05
  HS02004848           JUNCTION     0.01     0.05     9.65     0  03:01        0.05
  HS02004842           JUNCTION     0.33     0.38     9.65     0  03:01        0.38
  HS02004837           JUNCTION     0.03     0.07     9.65     0  03:01        0.07
  HS02004830           JUNCTION     0.04     0.08     9.55     0  03:01        0.08
  HS02004824           JUNCTION     0.02     0.06     9.46     0  03:01        0.06
  HS02004817           JUNCTION     0.43     0.60     9.44     0  03:01        0.60
  HS02004807           JUNCTION     0.11     0.27     9.44     0  03:01        0.27
  HS02004802           JUNCTION     0.15     0.30     9.43     0  03:01        0.30
  HS02004799           JUNCTION     0.10     0.33     9.54     0  03:01        0.33
  HS02004792           JUNCTION     0.02     0.14     9.66     0  03:01        0.14
  HS02004788           JUNCTION     0.02     0.10    10.00     0  03:01        0.10
  HS02004785           JUNCTION     0.03     0.17    10.07     0  03:01        0.17
  HS02004777           JUNCTION     0.13     0.30    10.10     0  03:01        0.30
  HS02004770           JUNCTION     0.10     0.27    10.10     0  03:01        0.27
  HS02004480           JUNCTION     0.07     0.26     9.50     0  03:01        0.26
  HS02004479           JUNCTION     0.10     0.30     9.50     0  03:01        0.30
  HS02004478           JUNCTION     0.05     0.18     9.41     0  03:01        0.18
  YS02001745           JUNCTION     0.73     0.91     8.42     0  03:18        0.90
  YS02001748           JUNCTION     1.12     1.35     8.43     0  02:40        1.34
  YS02001751           JUNCTION     1.30     1.55     8.43     0  03:16        1.54
  YS02001754           JUNCTION     1.55     1.82     8.43     0  03:18        1.81
  YS02001762           JUNCTION     1.75     2.04     8.44     0  03:09        2.02
  YS02001765           JUNCTION     1.70     1.99     8.44     0  03:09        1.97
  YS02001767           JUNCTION     1.67     1.94     8.43     0  03:09        1.92
  YS02001770           JUNCTION     1.66     1.92     8.41     0  03:09        1.90
  YS02001774           JUNCTION     1.73     1.98     8.40     0  03:09        1.97
  YS02001779           JUNCTION     1.48     1.68     8.37     0  02:47        1.68
  YS02001882           JUNCTION     0.43     1.61     8.33     0  02:53        1.60
  YS02001884           JUNCTION     0.52     1.71     8.33     0  02:53        1.70
  YS02001759           JUNCTION     1.79     2.07     8.43     0  03:12        2.06
  YS02001887           JUNCTION     0.60     1.79     8.33     0  02:55        1.78
  YS02001890           JUNCTION     0.63     1.81     8.31     0  03:00        1.80
  YS02001898           JUNCTION     0.40     1.55     8.29     0  02:53        1.55
  YS02001901           JUNCTION     0.52     1.67     8.28     0  02:53        1.66
  YS02001904           JUNCTION     0.50     1.63     8.26     0  03:01        1.63
  YS02001907           JUNCTION     0.83     1.96     8.25     0  02:52        1.96
  YS02001910           JUNCTION     0.62     1.77     8.28     0  02:54        1.76
  YS02001915           JUNCTION     0.42     1.58     8.30     0  02:54        1.58
  YS02001918           JUNCTION     0.19     1.25     8.31     0  02:54        1.25
  YS02001619           JUNCTION     1.27     1.59     8.52     0  02:35        1.47
  YS02001629           JUNCTION     1.62     1.85     8.40     0  02:47        1.84
  YS02001641           JUNCTION     1.72     1.94     8.37     0  02:47        1.93
  YS02001644           JUNCTION     1.72     1.92     8.35     0  02:46        1.92
  YS02001652           JUNCTION     1.57     2.06     8.65     0  02:28        1.89
  YS02001655           JUNCTION     1.33     2.20     9.05     0  02:28        1.68
  YS02001920           JUNCTION     0.29     1.32     8.33     0  02:53        1.31
  YS02001923           JUNCTION     0.15     1.07     8.33     0  02:54        1.07
  YS02001926           JUNCTION     0.22     0.90     8.34     0  02:53        0.90
  YS02001929           JUNCTION     0.12     0.67     8.37     0  02:53        0.63
  YS02001658           JUNCTION     1.07     1.83     8.97     0  04:10        1.45
  YS02001661           JUNCTION     0.83     2.00     9.41     0  04:07        1.32
  YS02001664           JUNCTION     0.37     0.57     8.49     0  04:06        0.56
  YS02001622           JUNCTION     1.29     1.61     8.52     0  02:35        1.49
  YS02001633           JUNCTION     1.71     1.95     8.40     0  02:46        1.94
  YS02001649           JUNCTION     1.76     2.05     8.44     0  02:49        2.05
  YS02001757           JUNCTION     1.88     2.17     8.43     0  03:09        2.16
  YS02001895           JUNCTION     0.40     1.55     8.30     0  02:53        1.55
  YS02001625           JUNCTION     1.57     1.78     8.38     0  02:45        1.78
  YS02163301           JUNCTION     1.65     1.88     8.40     0  02:46        1.87
  YS02163601           JUNCTION     1.76     1.99     8.39     0  02:46        1.99
  YS02164001           JUNCTION     1.70     1.92     8.38     0  02:46        1.91
  YS02001647           JUNCTION     1.55     1.80     8.41     0  02:50        1.78
  YSB1154              JUNCTION     0.24     0.45     9.51     0  03:01        0.45
  YSB6556              JUNCTION     0.13     0.34     9.51     0  03:01        0.34
  YSB1174              JUNCTION     0.19     0.40     9.51     0  03:01        0.40
  YSB1171              JUNCTION     0.39     0.60     9.51     0  03:01        0.60
  YS02006553           JUNCTION     0.83     1.96     8.25     0  02:59        1.96
  YS02006561           JUNCTION     0.23     1.08     7.74     0  03:12        1.07
  YS02006556           JUNCTION     0.80     1.92     8.23     0  03:02        1.92
  YS02006558           JUNCTION     0.84     1.96     8.23     0  02:59        1.95
  YS02001783           JUNCTION     0.44     1.47     7.61     0  03:03        1.46
  YS02001784           JUNCTION     0.47     1.41     7.48     0  03:02        1.41
  YS02001786           JUNCTION     0.42     1.26     7.29     0  02:59        1.25
  YS02001788           JUNCTION     0.37     1.13     7.11     0  03:01        1.12
  YS02001790           JUNCTION     0.49     1.43     7.08     0  02:14        1.28
  YS02001791           JUNCTION     0.47     1.32     6.79     0  02:14        1.27
  YS02001793           JUNCTION     0.64     1.81     6.64     0  02:52        1.80
  WS02004139           JUNCTION     0.59     0.70     5.61     0  05:02        0.70
  WSC                  OUTFALL      0.29     0.35     1.02     0  03:11        0.35
  3                    OUTFALL      0.08     0.20     6.20     0  05:41        0.20
  4                    OUTFALL      0.02     0.10     7.10     0  05:50        0.10
  5                    OUTFALL      0.00     0.00     5.00     0  00:00        0.00
  JK-storage           STORAGE      2.59     5.80     6.60     0  02:15        5.80
  CC-storage           STORAGE      1.16     1.41     8.41     0  03:16        1.41
  XR-storage           STORAGE      7.34     7.72     5.72     0  02:41        7.72
  
  
  *******************
  Node Inflow Summary
  *******************
  
  -------------------------------------------------------------------------------------------------
                                  Maximum  Maximum                  Lateral       Total        Flow
                                  Lateral    Total  Time of Max      Inflow      Inflow     Balance
                                   Inflow   Inflow   Occurrence      Volume      Volume       Error
  Node                 Type           LPS      LPS  days hr:min    10^6 ltr    10^6 ltr     Percent
  -------------------------------------------------------------------------------------------------
  WS02001211           JUNCTION      7.35   376.89     0  05:00       0.207        6.78       0.537
  WS02001212           JUNCTION      0.00   370.55     0  05:01           0        6.75       0.291
  WS02001213           JUNCTION      0.00   369.19     0  05:02           0        6.73       0.395
  WS02003069           JUNCTION      0.32   756.85     0  03:09     0.00902        13.5       0.254
  WS02003072           JUNCTION      0.00   756.81     0  03:10           0        13.5       0.305
  WS02003073           JUNCTION      1.82   758.62     0  03:10      0.0514        13.5       0.349
  WS02003060           JUNCTION     16.53   756.50     0  03:08       0.466        13.5       0.241
  WS02003066           JUNCTION      0.00   449.91     0  03:08           0        6.43       0.080
  WS02003059           JUNCTION      0.00   368.89     0  05:02           0         6.7       0.583
  WS02003067           JUNCTION      0.00   449.87     0  03:08           0        6.44       0.163
  WS02004401           JUNCTION      0.00   453.80     0  03:04           0         6.7       0.364
  WS02004402           JUNCTION      0.00   453.21     0  03:05           0        6.68       0.338
  WS02004403           JUNCTION      0.00   452.97     0  03:05           0        6.66       0.304
  WS02004404           JUNCTION      0.16   452.78     0  03:05     0.00457        6.64       0.225
  WS02004406           JUNCTION      0.00   452.75     0  03:05           0         6.6       0.549
  WS02004409           JUNCTION      0.00   452.56     0  03:06           0        6.56       0.303
  WS02004410           JUNCTION      0.00   451.79     0  03:06           0        6.54       0.336
  WS02004411           JUNCTION      0.00   451.08     0  03:06           0        6.52       0.340
  WS02004412           JUNCTION      0.00   450.55     0  03:07           0         6.5       0.360
  WS02004413           JUNCTION      0.00   450.08     0  03:07           0        6.47       0.523
  WS02004405           JUNCTION      0.04   452.75     0  03:05     0.00107        6.63       0.336
  WS02006109           JUNCTION      1.23   446.13     0  03:02      0.0347        6.78       0.273
  WS02006110           JUNCTION      0.00   446.13     0  03:02           0        6.76       0.338
  WS02006111           JUNCTION      0.00   458.88     0  03:03           0        6.72       0.083
  WS02006112           JUNCTION     14.47   457.60     0  03:03      0.0629        6.78       0.478
  WS02006113           JUNCTION      0.00   446.25     0  03:03           0        6.74       0.171
  WS02006115           JUNCTION      0.00   455.71     0  03:03           0        6.75       0.367
  WS02006116           JUNCTION      0.00   454.58     0  03:04           0        6.72       0.319
  WS02006230           JUNCTION     10.28   399.18     0  05:48        0.29        4.89       0.221
  WS02006231           JUNCTION      0.00   390.52     0  05:44           0        4.62       0.422
  WS02006232           JUNCTION      0.00   390.69     0  05:44           0        4.64       0.373
  WS02006234           JUNCTION      0.00   393.59     0  05:43           0        4.65       0.223
  WS02006235           JUNCTION      0.00   394.63     0  05:43           0        4.69       0.268
  WS02006238           JUNCTION      0.00   310.38     0  07:50           0        3.16       0.171
  WS02006240           JUNCTION      0.00   325.53     0  04:21           0        3.16       0.523
  WS02006242           JUNCTION      0.00   335.30     0  04:01           0        3.17       0.617
  WS02006243           JUNCTION      0.00   343.41     0  04:01           0        3.16      -0.191
  WS02006245           JUNCTION      0.00   347.85     0  04:01           0        3.18       0.557
  WS02006247           JUNCTION      0.00   351.99     0  04:00           0        3.19       0.335
  WS02006248           JUNCTION      0.00   355.76     0  04:00           0        3.19       0.201
  WS02006249           JUNCTION      0.00   401.50     0  05:09           0        3.46       0.488
  WS02006239           JUNCTION      0.00   317.86     0  04:22           0        3.16       0.353
  WS02006251           JUNCTION      0.08   401.84     0  05:09     0.00217        3.52       0.396
  WS02006252           JUNCTION      0.00   400.00     0  05:00           0        3.12       0.016
  WS02006253           JUNCTION      1.91    80.98     0  03:01     0.00814        0.41       2.146
  WS02006256           JUNCTION      0.00   600.00     0  05:40           0        4.03       0.062
  WS02004138           JUNCTION      0.00   379.93     0  05:00           0        6.61       0.082
  WS02004407           JUNCTION      0.00   452.63     0  03:05           0        6.57       0.135
  WS02006228           JUNCTION      0.00   444.89     0  03:02           0        6.76       0.205
  WS02006229           JUNCTION      0.00   444.76     0  03:02           0        6.77       0.229
  WS02006280           JUNCTION      0.00   375.57     0  03:02           0        1.89       0.004
  WS02006284           JUNCTION      0.10   375.56     0  03:02      0.0027        1.89       0.064
  WS02006287           JUNCTION      0.00   375.28     0  03:01           0        1.89       0.038
  WSF200               JUNCTION      0.00   449.89     0  03:08           0        6.42       0.083
  HS02004901           JUNCTION     17.47    17.47     0  03:01      0.0757      0.0759       2.379
  HS02004881           JUNCTION      7.55    79.19     0  03:01      0.0331       0.357       0.034
  HS02004876           JUNCTION     14.15    72.10     0  03:01      0.0636       0.324       0.171
  HS02004870           JUNCTION     14.17    58.27     0  03:01      0.0626       0.261       0.043
  HS02004862           JUNCTION     13.95    44.46     0  03:01      0.0685       0.198       0.089
  HS02004856           JUNCTION     10.64    30.80     0  03:01      0.0471       0.131       1.116
  HS02004852           JUNCTION      0.00    20.44     0  03:01           0       0.084       0.069
  HS02004848           JUNCTION     32.07    32.07     0  03:01       0.151       0.151       0.032
  HS02004842           JUNCTION      0.00    11.42     0  03:01           0      0.0801      19.391
  HS02004837           JUNCTION     30.75    41.91     0  03:01       0.288       0.355       0.229
  HS02004830           JUNCTION      0.15    41.84     0  03:01     0.00423       0.346       0.359
  HS02004824           JUNCTION     40.25    81.79     0  03:01       0.198       0.542       0.100
  HS02004817           JUNCTION      0.60    82.19     0  03:01      0.0169       0.558       3.079
  HS02004807           JUNCTION     26.15   107.24     0  03:01       0.115       0.657       0.656
  HS02004802           JUNCTION      0.00   106.49     0  03:01           0       0.653       0.619
  HS02004799           JUNCTION     21.02   227.51     0  03:01      0.0933        1.06       0.236
  HS02004792           JUNCTION     88.55   207.33     0  03:01       0.396       0.966       0.043
  HS02004788           JUNCTION     30.78   119.38     0  03:01       0.177       0.571       0.068
  HS02004785           JUNCTION      0.15    89.79     0  03:01     0.00423       0.396       0.125
  HS02004777           JUNCTION      0.03    90.24     0  03:01    0.000846       0.397       1.326
  HS02004770           JUNCTION     73.89    90.93     0  03:01       0.324       0.398       0.787
  HS02004480           JUNCTION      0.00   269.28     0  03:01           0        1.25       0.099
  HS02004479           JUNCTION      0.00    42.82     0  03:02           0       0.204       0.360
  HS02004478           JUNCTION      0.00   375.18     0  03:01           0        1.89       0.018
  YS02001745           JUNCTION    297.18   306.28     0  02:39        2.34        2.34       0.425
  YS02001748           JUNCTION      0.04   486.24     0  02:40     0.00127        2.33       0.964
  YS02001751           JUNCTION      0.01   308.66     0  03:00     0.00031        2.31       1.039
  YS02001754           JUNCTION      0.26   307.82     0  03:00     0.00733        2.29       1.093
  YS02001762           JUNCTION      0.00   304.24     0  02:49           0         1.9       1.127
  YS02001765           JUNCTION      0.00   304.84     0  02:49           0         1.9       1.298
  YS02001767           JUNCTION      0.54   304.92     0  02:49      0.0151        1.93       1.886
  YS02001770           JUNCTION    373.02   487.07     0  03:19        2.63        3.04       1.044
  YS02001774           JUNCTION      0.00   486.59     0  03:19           0         1.5       1.717
  YS02001779           JUNCTION      0.01   488.10     0  03:19    0.000141        1.47       1.071
  YS02001882           JUNCTION      0.00    10.96     0  02:45           0      0.0159      15.722
  YS02001884           JUNCTION      0.00    21.19     0  02:44           0      0.0508      13.671
  YS02001759           JUNCTION    359.84   597.26     0  02:50        2.43         3.9       0.597
  YS02001887           JUNCTION    453.35   453.51     0  03:00         2.8        2.83       0.293
  YS02001890           JUNCTION      0.00   453.55     0  03:00           0        2.79       0.328
  YS02001898           JUNCTION      0.00   453.87     0  03:01           0        2.77       0.112
  YS02001901           JUNCTION      0.00   453.68     0  03:00           0        2.77       0.247
  YS02001904           JUNCTION      0.00   454.08     0  03:01           0        2.77       0.221
  YS02001907           JUNCTION      0.00   860.49     0  02:58           0        6.12       0.384
  YS02001910           JUNCTION      0.00   431.67     0  02:54           0        3.37       0.348
  YS02001915           JUNCTION    263.65   431.58     0  02:54        1.96        3.39       0.177
  YS02001918           JUNCTION      0.00   197.30     0  02:54           0        1.43       0.131
  YS02001619           JUNCTION    257.27   257.27     0  03:01        1.95        1.95       0.624
  YS02001629           JUNCTION      0.00   203.73     0  02:29           0        1.61       1.814
  YS02001641           JUNCTION      0.00   413.53     0  02:45           0        3.83       0.551
  YS02001644           JUNCTION    282.70  1208.03     0  03:18        2.25        8.82       0.299
  YS02001652           JUNCTION      0.00   369.72     0  03:01           0        2.05       1.164
  YS02001655           JUNCTION      0.15   382.84     0  02:30     0.00434        2.08       1.190
  YS02001920           JUNCTION      2.87   197.02     0  02:54      0.0809        1.42       0.204
  YS02001923           JUNCTION      0.04   207.23     0  02:54     0.00106        1.34       0.050
  YS02001926           JUNCTION      0.05   157.30     0  02:59     0.00147        1.34       0.245
  YS02001929           JUNCTION    129.40   129.40     0  03:01        1.34        1.34       0.040
  YS02001658           JUNCTION      0.00   614.72     0  02:34           0        2.11       0.966
  YS02001661           JUNCTION      0.00   649.52     0  02:51           0        2.75      -0.437
  YS02001664           JUNCTION    327.80   348.91     0  02:47        2.09        2.74       0.212
  YS02001622           JUNCTION      0.00   257.89     0  03:01           0        1.94       1.677
  YS02001633           JUNCTION    287.40   410.95     0  02:45        2.32        3.88       0.828
  YS02001649           JUNCTION      0.00   869.62     0  02:46           0         5.4       0.693
  YS02001757           JUNCTION      0.00  1649.57     0  02:47           0        8.45       1.100
  YS02001895           JUNCTION      0.00   453.56     0  03:01           0        2.78       0.173
  YS02001625           JUNCTION      0.00   257.47     0  03:01           0         1.9       2.069
  YS02163301           JUNCTION      0.00   200.35     0  02:35           0        1.59       1.532
  YS02163601           JUNCTION      0.11   412.15     0  02:45      0.0031        3.85       0.786
  YS02164001           JUNCTION      0.00   412.10     0  02:45           0        3.83       0.526
  YS02001647           JUNCTION      0.00   622.47     0  02:45           0        4.56       0.619
  YSB1154              JUNCTION     25.19    25.19     0  03:01       0.113       0.114       1.285
  YSB6556              JUNCTION      0.00    24.92     0  03:01           0       0.115       1.100
  YSB1174              JUNCTION     19.06    19.06     0  03:01      0.0821      0.0827       1.580
  YSB1171              JUNCTION      0.00    43.19     0  03:01           0       0.203       3.219
  YS02006553           JUNCTION      0.00   668.11     0  03:17           0         5.9       0.259
  YS02006561           JUNCTION      0.00   964.39     0  03:00           0        8.42       0.004
  YS02006556           JUNCTION      0.00   667.44     0  03:17           0         5.9       0.180
  YS02006558           JUNCTION    392.87   965.12     0  03:01        2.57        8.45       0.067
  YS02001783           JUNCTION      0.00   964.49     0  03:01           0        8.42       0.027
  YS02001784           JUNCTION      1.06   965.77     0  03:00      0.0299        8.44       0.041
  YS02001786           JUNCTION      0.06   965.42     0  03:01     0.00159        8.44       0.040
  YS02001788           JUNCTION      0.07   965.62     0  03:00       0.002        8.44       0.023
  YS02001790           JUNCTION      0.15   965.72     0  03:00     0.00437        8.44       0.026
  YS02001791           JUNCTION      0.00   965.92     0  03:00           0        8.44       0.017
  YS02001793           JUNCTION      0.00   966.22     0  03:00           0        8.44       0.005
  WS02004139           JUNCTION      0.32   379.26     0  05:00     0.00905        6.62       0.598
  WSC                  OUTFALL       0.00   758.58     0  03:11           0        13.5       0.000
  3                    OUTFALL       0.00   489.67     0  05:41           0        2.47       0.000
  4                    OUTFALL       0.00    97.81     0  05:50           0       0.254       0.000
  5                    OUTFALL       0.00     0.00     0  00:00           0           0       0.000 ltr
  JK-storage           STORAGE       0.00   966.08     0  03:00           0        8.59      -7.895
  CC-storage           STORAGE       0.00  1651.59     0  02:47           0        6.74       0.918
  XR-storage           STORAGE     690.11   690.11     0  03:01        9.61        10.2      -0.002
  
  
  **********************
  Node Surcharge Summary
  **********************
  
  Surcharging occurs when water rises above the top of the highest conduit.
  ---------------------------------------------------------------------
                                               Max. Height   Min. Depth
                                   Hours       Above Crown    Below Rim
  Node                 Type      Surcharged         Meters       Meters
  ---------------------------------------------------------------------
  WS02006109           JUNCTION        1.12          0.049        1.771
  WS02006232           JUNCTION        1.10          0.041        1.439
  WS02006235           JUNCTION        0.66          0.023        1.267
  WS02006238           JUNCTION        0.87          0.042        1.388
  WS02006242           JUNCTION        0.66          0.036        0.784
  WS02006252           JUNCTION        1.62          0.193        0.907
  WS02006228           JUNCTION        1.02          0.055        2.145
  YS02001748           JUNCTION        5.12          0.270        0.920
  YS02001751           JUNCTION        5.29          0.551        0.649
  YS02001754           JUNCTION        5.48          0.773        0.377
  YS02001762           JUNCTION        5.64          1.044        0.106
  YS02001765           JUNCTION        5.62          0.992        0.108
  YS02001767           JUNCTION        5.59          0.944        0.086
  YS02001770           JUNCTION        5.58          0.888        0.032
  YS02001774           JUNCTION        5.63          0.977        0.073
  YS02001779           JUNCTION        5.46          0.680        0.000
  YS02001882           JUNCTION        0.81          0.612        0.218
  YS02001884           JUNCTION        0.84          0.652        0.218
  YS02001759           JUNCTION        5.66          1.070        0.140
  YS02001887           JUNCTION        0.93          0.737        0.213
  YS02001890           JUNCTION        0.97          0.758        0.002
  YS02001898           JUNCTION        0.76          0.524        0.216
  YS02001901           JUNCTION        0.90          0.675        0.195
  YS02001904           JUNCTION        0.87          0.634        0.216
  YS02001907           JUNCTION        1.50          0.950        0.000
  YS02001910           JUNCTION        1.02          0.773        0.327
  YS02001915           JUNCTION        0.79          0.584        0.416
  YS02001918           JUNCTION        0.54          0.248        0.562
  YS02001619           JUNCTION        5.28          0.595        0.015
  YS02001629           JUNCTION        5.29          0.469        0.001
  YS02001641           JUNCTION        5.62          0.938        0.162
  YS02001644           JUNCTION        5.62          0.920        0.000
  YS02001652           JUNCTION        5.52          1.027        0.103
  YS02001655           JUNCTION        5.30          1.200        0.000
  YS02001920           JUNCTION        0.57          0.322        0.818
  YS02001658           JUNCTION        5.15          0.831        0.469
  YS02001661           JUNCTION        0.18          0.934        0.456
  YS02001622           JUNCTION        5.31          0.611        0.009
  YS02001633           JUNCTION        5.61          0.929        0.131
  YS02001649           JUNCTION        5.64          1.050        0.000
  YS02001757           JUNCTION        5.74          1.170        0.040
  YS02001895           JUNCTION        0.78          0.554        0.196
  YS02001625           JUNCTION        5.55          0.780        0.000
  YS02163301           JUNCTION        5.59          0.883        0.147
  YS02163601           JUNCTION        5.64          0.994        0.086
  YS02164001           JUNCTION        5.61          0.923        0.177
  YS02001647           JUNCTION        5.53          0.804        0.096
  YS02006553           JUNCTION        1.57          0.965        0.225
  YS02006561           JUNCTION        0.67          0.278        0.872
  YS02006556           JUNCTION        1.24          0.879        0.471
  YS02006558           JUNCTION        1.20          0.858        0.542
  YS02001783           JUNCTION        1.48          0.671        0.929
  YS02001784           JUNCTION        1.56          0.614        0.876
  YS02001786           JUNCTION        1.49          0.462        0.968
  YS02001788           JUNCTION        1.46          0.332        1.148
  YS02001790           JUNCTION        2.54          0.634        0.523
  YS02001791           JUNCTION        2.58          0.524        1.396
  YS02001793           JUNCTION        2.66          0.808        1.792
  
  
  *********************
  Node Flooding Summary
  *********************
  
  Flooding refers to all water that overflows a node, whether it ponds or not.
  --------------------------------------------------------------------------
                                                             Total   Maximum
                                 Maximum   Time of Max       Flood    Ponded
                        Hours       Rate    Occurrence      Volume     Depth
  Node                 Flooded       LPS   days hr:min    10^6 ltr    Meters
  --------------------------------------------------------------------------
  YS02001779              2.68    487.84      0  03:19       1.448     0.000
  YS02001907              0.38    276.53      0  02:58       0.212     0.000
  YS02001644              4.31   1207.92      0  03:18       6.997     0.000
  YS02001655              0.01    130.87      0  02:28       0.000     0.000
  YS02001649              0.02     24.41      0  04:04       0.001     0.000
  YS02001625              0.91    169.32      0  03:01       0.252     0.000
  JK-storage              2.34    965.68      0  03:00       5.299     0.000
  XR-storage              4.62    405.01      0  03:01       2.698     0.000
  
  
  **********************
  Storage Volume Summary
  **********************
  
  --------------------------------------------------------------------------------------------------
                         Average     Avg  Evap Exfil       Maximum     Max    Time of Max    Maximum
                          Volume    Pcnt  Pcnt  Pcnt        Volume    Pcnt     Occurrence    Outflow
  Storage Unit           1000 m3    Full  Loss  Loss       1000 m3    Full    days hr:min        LPS
  --------------------------------------------------------------------------------------------------
  JK-storage               0.130      45     0     0         0.291     100       0  02:15     600.00
  CC-storage               3.226      21     0     0         3.937      25       0  03:16     400.00
  XR-storage               0.880      95     0     0         0.926     100       0  02:41     379.93
  
  
  ***********************
  Outfall Loading Summary
  ***********************
  
  -----------------------------------------------------------
                         Flow       Avg       Max       Total
                         Freq      Flow      Flow      Volume
  Outfall Node           Pcnt       LPS       LPS    10^6 ltr
  -----------------------------------------------------------
  WSC                  100.00    527.30    758.58      13.452
  3                     76.25    186.30    489.67       2.474
  4                     27.14     49.91     97.81       0.254
  5                      0.00      0.00      0.00       0.000
  -----------------------------------------------------------
  System                50.85    763.51   1010.31      16.180
  
  
  ********************
  Link Flow Summary
  ********************
  
  -----------------------------------------------------------------------------
                                 Maximum  Time of Max   Maximum    Max/    Max/
                                  |Flow|   Occurrence   |Veloc|    Full    Full
  Link                 Type          LPS  days hr:min     m/sec    Flow   Depth
  -----------------------------------------------------------------------------
  WS02003066WSF200     CONDUIT    449.89     0  03:08      2.64    0.08    0.21
  WS02006287WS02006284 CONDUIT    375.46     0  03:02      1.98    0.17    0.29
  WS02006284WS02006280 CONDUIT    375.57     0  03:02      2.22    0.16    0.27
  WS02006280WS02006229 CONDUIT    375.60     0  03:02      3.58    0.08    0.19
  WS02006229WS02006228 CONDUIT    444.89     0  03:02      0.89    1.47    1.00
  WS02006256WS02006235 CONDUIT    150.00     0  00:15      2.14    1.59    1.00
  WS02006253WS02006251 CONDUIT     80.93     0  03:01      0.62    0.24    0.89
  WS02006252WS02006251 CONDUIT    400.38     0  07:34      3.19    1.47    1.00
  WS02006251WS02006249 CONDUIT    401.50     0  05:09      1.17    1.16    0.87
  WS02006249WS02006248 CONDUIT    355.76     0  04:00      1.17    1.95    0.83
  WS02006248WS02006247 CONDUIT    351.99     0  04:00      1.15    0.77    0.87
  WS02006247WS02006245 CONDUIT    347.85     0  04:01      1.13    2.76    0.90
  WS02006245WS02006243 CONDUIT    343.41     0  04:01      1.18    1.02    0.91
  WS02006243WS02006242 CONDUIT    335.30     0  04:01      1.06    0.72    0.97
  WS02006242WS02006240 CONDUIT    325.53     0  04:21      1.00    1.29    0.99
  WS02006240WS02006239 CONDUIT    317.86     0  04:22      1.06    1.00    1.00
  WS02006239WS02006238 CONDUIT    310.38     0  07:50      0.93    0.99    1.00
  WS02006238WS02006235 CONDUIT    310.38     0  07:50      0.91    0.69    1.00
  WS02006235WS02006234 CONDUIT    393.59     0  05:43      1.11    4.15    0.98
  WS02006234WS02006232 CONDUIT    390.69     0  05:44      1.02    0.79    1.00
  WS02006232WS02006231 CONDUIT    390.52     0  05:44      1.07    0.82    0.91
  WS02006231WS02006230 CONDUIT    388.90     0  05:48      1.36    5.90    0.76
  WS02006230WS02006229 CONDUIT    399.19     0  05:49      1.04    8.88    1.00
  WS02006228WS02006109 CONDUIT    444.90     0  03:02      0.89    1.94    1.00
  WS02006116WS02004401 CONDUIT    453.80     0  03:04      0.79    0.63    0.77
  WS02006115WS02006116 CONDUIT    454.58     0  03:04      0.94    0.58    0.69
  WS02006113WS02006111 CONDUIT    458.88     0  03:03      2.30    0.55    0.42
  WS02006112WS02006115 CONDUIT    455.71     0  03:03      0.70    0.27    0.82
  WS02006111WS02006112 CONDUIT    447.54     0  03:04      1.28    0.21    0.66
  WS02006110WS02006113 CONDUIT    446.25     0  03:03      1.10    0.41    0.76
  WS02006109WS02006110 CONDUIT    446.13     0  03:02      0.90    0.86    0.96
  WS02004411WS02004412 CONDUIT    450.55     0  03:07      0.85    0.64    0.64
  WS02004401WS02004402 CONDUIT    453.21     0  03:05      0.83    0.54    0.80
  WS02004413WS02003067 CONDUIT    449.87     0  03:08      1.01    0.19    0.55
  WS02004412WS02004413 CONDUIT    450.08     0  03:07      0.74    0.30    0.73
  WS02004410WS02004411 CONDUIT    451.08     0  03:06      0.87    0.62    0.63
  WS02004409WS02004410 CONDUIT    451.79     0  03:06      0.90    0.58    0.61
  WS02004407WS02004409 CONDUIT    452.56     0  03:06      1.39    0.16    0.44
  WS02004406WS02004407 CONDUIT    452.63     0  03:05      0.94    0.20    0.59
  WS02004405WS02004406 CONDUIT    452.75     0  03:05      0.77    0.89    0.90
  WS02004404WS02004405 CONDUIT    452.71     0  03:05      0.96    4.44    0.90
  WS02004403WS02004404 CONDUIT    452.62     0  03:05      0.85    0.33    0.87
  WS02004402WS02004403 CONDUIT    452.97     0  03:05      0.87    0.65    0.82
  WS02004139WS02001211 CONDUIT    369.54     0  05:00      0.81    0.47    0.57
  WS02004138WS02004139 CONDUIT    378.94     0  05:00      3.34    0.08    0.42
  WS02003067WS02003066 CONDUIT    449.91     0  03:08      1.09    0.14    0.39
  WS02001213WS02003059 CONDUIT    368.89     0  05:02      0.78    0.61    0.71
  WS02001212WS02001213 CONDUIT    369.19     0  05:02      1.19    0.57    0.42
  WS02001211WS02001212 CONDUIT    370.55     0  05:01      0.74    0.28    0.61
  WS02003072WS02003073 CONDUIT    756.80     0  03:10      1.60    1.63    0.44
  WS02003069WS02003072 CONDUIT    756.81     0  03:10      1.51    0.36    0.45
  WS02003060WS02003069 CONDUIT    756.53     0  03:09      1.77    0.30    0.40
  WS02003059WS02003060 CONDUIT    369.91     0  05:03      0.82    0.24    0.60
  HS02004901HS02004770 CONDUIT     17.70     0  03:01      0.07    0.07    0.39
  HS02004876HS02004881 CONDUIT     71.90     0  03:01      0.92    0.76    0.11
  HS02004870HS02004876 CONDUIT     58.04     0  03:01      0.63    0.04    0.13
  HS02004842HS02004848 CONDUIT     11.42     0  03:01      0.05    0.01    0.30
  HS02004837HS02004842 CONDUIT     11.95     0  03:02      0.42    0.01    0.32
  HS02004830HS02004837 CONDUIT     41.69     0  03:01      0.56    0.04    0.11
  HS02004824HS02004830 CONDUIT     41.67     0  03:01      0.58    0.05    0.10
  HS02004817HS02004824 CONDUIT     81.59     0  03:01      0.25    0.04    0.47
  HS02004770HS02004777 CONDUIT     90.21     0  03:01      0.32    0.16    0.41
  HS02004799HS02004480 CONDUIT    226.98     0  03:01      0.78    0.29    0.42
  HS02004792HS02004799 CONDUIT    206.61     0  03:01      0.88    0.13    0.33
  HS02004788HS02004792 CONDUIT    118.95     0  03:01      1.01    0.08    0.17
  HS02004785HS02004788 CONDUIT     89.52     0  03:02      0.66    0.67    0.19
  HS02004777HS02004785 CONDUIT     89.64     0  03:01      0.38    0.11    0.33
  HS02004480HS02004478 CONDUIT    269.13     0  03:01      1.20    1.13    0.32
  HS02004479HS02004480 CONDUIT     44.18     0  03:02      0.23    0.04    0.40
  HS02004862HS02004870 CONDUIT     44.23     0  03:01      0.64    0.05    0.10
  HS02004848HS02004852 CONDUIT     20.44     0  03:01      0.44    0.02    0.07
  HS02004856HS02004862 CONDUIT     30.57     0  03:01      0.47    0.03    0.09
  HS02004852HS02004856 CONDUIT     20.26     0  03:01      0.24    0.02    0.12
  HS02004802HS02004478 CONDUIT    106.59     0  03:02      0.45    0.09    0.35
  HS02004478WS02006287 CONDUIT    375.28     0  03:01      1.68    0.11    0.25
  HS02004817HS02004807 CONDUIT     82.19     0  03:01      0.19    0.05    0.62
  HS02004807HS02004802 CONDUIT    106.49     0  03:01      0.38    0.20    0.40
  YS02001759YS02001757 CONDUIT    597.18     0  02:49      0.76    0.42    1.00
  YS02001762YS02001759 CONDUIT    303.19     0  02:48      0.39    0.35    1.00
  YS02001765YS02001762 CONDUIT    304.24     0  02:49      0.39    0.29    1.00
  YS02001770YS02001767 CONDUIT    304.39     0  02:49      0.39    1.21    1.00
  YS02001774YS02001770 CONDUIT    486.59     0  03:19      0.62    0.31    1.00
  YS02001779YS02001774 CONDUIT    488.09     0  03:19      0.62    0.25    1.00
  YS02001649YS02001757 CONDUIT    872.96     0  02:46      1.11    0.53    1.00
  YS02001767YS02001765 CONDUIT    304.84     0  02:49      0.39    0.38    1.00
  YS02006561YS02001783 CONDUIT    964.49     0  03:01      1.92    0.50    1.00
  YS02001783YS02001784 CONDUIT    964.71     0  03:00      1.92    1.33    1.00
  YS02001784YS02001785 CONDUIT    965.37     0  03:01      1.92    2.25    1.00
  YS02001788YS02001790 CONDUIT    965.56     0  03:00      1.94    0.71    1.00
  YS02001790YS02001791 CONDUIT    965.92     0  03:00      2.28    1.05    1.00
  YS02001791YS02001793 CONDUIT    966.22     0  03:00      4.39    0.41    1.00
  YS02001910YS02001907 CONDUIT    432.14     0  02:54      0.55    0.24    1.00
  YS02001786YS02001788 CONDUIT    965.55     0  03:00      1.92    1.86    1.00
  YS02001915YS02001910 CONDUIT    431.67     0  02:54      0.55    0.21    1.00
  YS02001918YS02001915 CONDUIT    198.29     0  02:54      0.44    0.11    1.00
  YS02001923YS02001920 CONDUIT    194.15     0  02:54      0.68    0.09    1.00
  YS02001926YS02001923 CONDUIT    207.19     0  02:54      0.79    0.30    0.88
  YS02001929YS02001926 CONDUIT    157.25     0  02:59      0.84    0.07    0.78
  YS02001920YS02001918 CONDUIT    197.30     0  02:54      0.67    0.19    1.00
  YS02001629YS02163301 CONDUIT    200.35     0  02:35      0.26    0.25    1.00
  YS02001619YS02001622 CONDUIT    257.89     0  03:01      0.61    0.38    1.00
  YS02001622YS02001625 CONDUIT    257.47     0  03:01      0.33    0.14    1.00
  YS02001625YS02001629 CONDUIT    203.73     0  02:29      0.26    0.10    1.00
  YS02163301YS02001633 CONDUIT    202.57     0  02:35      0.26    0.19    1.00
  YS02163601YS02164001 CONDUIT    412.10     0  02:45      0.52    0.37    1.00
  YS02164001YS02001641 CONDUIT    413.53     0  02:45      0.53    0.56    1.00
  YS02001641YS02001644 CONDUIT    413.65     0  02:45      0.53    1.34    1.00
  YS02001647YS02001649 CONDUIT    622.11     0  02:45      0.79    0.33    1.00
  YS02006553YS02006556 CONDUIT    667.44     0  03:17      0.85    0.57    1.00
  YS02006556YS02006558 CONDUIT    668.00     0  03:17      0.85    0.53    1.00
  YSB6556YSB1171       CONDUIT     24.82     0  03:03      0.09    0.03    0.67
  YS02001907YS02006553 CONDUIT    668.11     0  03:17      0.74    0.79    1.00
  YS02006558YS02006561 CONDUIT    964.39     0  03:00      3.41    2.13    1.00
  YS02001633YS02163601 CONDUIT    412.04     0  02:45      0.52    0.43    1.00
  YS02001644YS02001647 CONDUIT    622.51     0  03:19      0.79    0.37    1.00
  YS02001745YS02001748 CONDUIT    486.20     0  02:40      1.48    0.19    0.95
  YS02001748YS02001751 CONDUIT    308.65     0  03:00      1.05    0.16    1.00
  YS02001751YS02001754 CONDUIT    307.56     0  03:00      0.88    0.15    1.00
  YS02001754YS02001757 CONDUIT    307.85     0  03:01      0.39    0.12    1.00
  YS02001882YS02001884 CONDUIT     10.96     0  02:45      0.09    0.01    1.00
  YS02001884YS02001887 CONDUIT     21.19     0  02:44      0.05    0.03    1.00
  YS02001890YS02001895 CONDUIT    453.56     0  03:01      0.58    0.21    1.00
  YS02001895YS02001898 CONDUIT    453.87     0  03:01      0.58    0.79    1.00
  YS02001898YS02001901 CONDUIT    453.68     0  03:00      0.58    0.29    1.00
  YS02001901YS02001904 CONDUIT    454.08     0  03:01      0.58    0.70    1.00
  YS02001904YS02001907 CONDUIT    453.97     0  03:01      0.58    0.16    1.00
  YS02001887YS02001890 CONDUIT    453.55     0  03:00      0.58    0.78    1.00
  YS02001652YS02001649 CONDUIT    371.84     0  03:01      0.50    0.18    1.00
  YS02001655YS02001652 CONDUIT    369.72     0  03:01      0.93    0.18    1.00
  YS02001658YS02001655 CONDUIT    382.69     0  02:30      1.21    0.16    1.00
  YS02001661YS02001658 CONDUIT    614.72     0  02:34      1.56    0.24    1.00
  YS02001664YS02001661 CONDUIT    649.52     0  02:51      1.46    0.20    0.74
  YSB1154YSB6556       CONDUIT     24.92     0  03:01      0.18    0.04    0.56
  YSB1174YSB1171       CONDUIT     18.78     0  03:01      0.07    0.03    0.68
  YSB1171HS02004479    CONDUIT     42.82     0  03:02      0.54    0.03    0.53
  HS02004881HS02006253 CONDUIT     79.16     0  03:01      2.19    0.02    0.22
  YS02001793JiankangQianchi CONDUIT    966.08     0  03:00     11.83    0.08    1.00
  YS02001757CaochengTiaoxuchi CONDUIT   1651.59     0  02:47      2.13    0.73    1.00
  WSF200WS02003060     CONDUIT    449.98     0  03:08      1.58    0.10    0.30
  1                    CONDUIT    758.58     0  03:11      3.09    0.26    0.35
  2                    CONDUIT     97.81     0  05:50      4.82    0.23    0.33
  3                    CONDUIT    489.67     0  05:41     10.11    0.78    0.67
  4                    CONDUIT      0.00     0  00:00      0.00    0.00    0.00
  CC-Pump-1            PUMP       200.00     0  05:00              1.00
  CC-Pump-2            PUMP       200.00     0  05:00              1.00
  JK-Pump-1            PUMP       300.00     0  04:40              1.00
  JK-Pump-2            PUMP       300.00     0  04:50              1.00
  XR-Pump-1            PUMP        95.00     0  00:00              1.00
  XR-Pump-2            PUMP        95.00     0  00:00              1.00
  XR-Pump-3            PUMP        95.00     0  00:00              1.00
  XR-Pump-4            PUMP        95.00     0  04:20              1.00
  
  
  ***************************
  Flow Classification Summary
  ***************************
  
  -------------------------------------------------------------------------------------
                      Adjusted    ---------- Fraction of Time in Flow Class ---------- 
                       /Actual         Up    Down  Sub   Sup   Up    Down  Norm  Inlet 
  Conduit               Length    Dry  Dry   Dry   Crit  Crit  Crit  Crit  Ltd   Ctrl  
  -------------------------------------------------------------------------------------
  WS02003066WSF200        1.00   0.05  0.00  0.00  0.00  0.95  0.00  0.00  0.84  0.00
  WS02006287WS02006284    1.00   0.04  0.01  0.00  0.74  0.20  0.00  0.00  0.65  0.00
  WS02006284WS02006280    1.00   0.05  0.00  0.00  0.00  0.00  0.00  0.95  0.00  0.00
  WS02006280WS02006229    1.00   0.05  0.00  0.00  0.00  0.00  0.00  0.95  0.00  0.00
  WS02006229WS02006228    1.00   0.00  0.00  0.00  1.00  0.00  0.00  0.00  0.00  0.00
  WS02006256WS02006235    1.00   0.00  0.00  0.00  1.00  0.00  0.00  0.00  0.00  0.00
  WS02006253WS02006251    1.00   0.03  0.02  0.00  0.95  0.00  0.00  0.00  0.00  0.00
  WS02006252WS02006251    1.00   0.22  0.00  0.00  0.00  0.00  0.78  0.00  0.00  0.00
  WS02006251WS02006249    1.00   0.00  0.00  0.00  1.00  0.00  0.00  0.00  0.32  0.00
  WS02006249WS02006248    1.00   0.00  0.00  0.00  0.83  0.00  0.17  0.00  0.00  0.00
  WS02006248WS02006247    1.00   0.00  0.00  0.00  0.97  0.00  0.00  0.02  0.24  0.00
  WS02006247WS02006245    1.00   0.00  0.00  0.00  0.97  0.00  0.00  0.02  0.00  0.00
  WS02006245WS02006243    1.00   0.01  0.00  0.00  0.94  0.00  0.00  0.05  0.01  0.00
  WS02006243WS02006242    1.00   0.01  0.00  0.00  0.99  0.00  0.00  0.00  0.38  0.00
  WS02006242WS02006240    1.00   0.01  0.00  0.00  0.99  0.00  0.00  0.00  0.00  0.00
  WS02006240WS02006239    1.00   0.01  0.00  0.00  0.93  0.00  0.00  0.06  0.01  0.00
  WS02006239WS02006238    1.00   0.00  0.00  0.00  0.99  0.00  0.00  0.00  0.02  0.00
  WS02006238WS02006235    1.00   0.00  0.00  0.00  1.00  0.00  0.00  0.00  0.00  0.00
  WS02006235WS02006234    1.00   0.00  0.00  0.00  0.95  0.00  0.05  0.00  0.00  0.00
  WS02006234WS02006232    1.00   0.00  0.00  0.00  0.99  0.00  0.00  0.00  0.05  0.00
  WS02006232WS02006231    1.00   0.01  0.00  0.00  0.99  0.00  0.00  0.00  0.00  0.00
  WS02006231WS02006230    1.00   0.01  0.00  0.00  0.49  0.00  0.50  0.00  0.00  0.00
  WS02006230WS02006229    1.00   0.00  0.00  0.00  0.99  0.00  0.00  0.01  0.00  0.00
  WS02006228WS02006109    1.00   0.00  0.00  0.00  1.00  0.00  0.00  0.00  0.00  0.00
  WS02006116WS02004401    1.00   0.03  0.00  0.00  0.97  0.00  0.00  0.00  0.00  0.00
  WS02006115WS02006116    1.00   0.03  0.00  0.00  0.97  0.00  0.00  0.01  0.00  0.00
  WS02006113WS02006111    1.00   0.02  0.00  0.00  0.00  0.98  0.00  0.00  0.17  0.00
  WS02006112WS02006115    1.00   0.02  0.01  0.00  0.97  0.00  0.00  0.00  0.00  0.00
  WS02006111WS02006112    1.00   0.02  0.00  0.00  0.97  0.00  0.00  0.00  0.95  0.00
  WS02006110WS02006113    1.00   0.00  0.01  0.00  0.98  0.00  0.00  0.00  0.00  0.00
  WS02006109WS02006110    1.00   0.00  0.00  0.00  1.00  0.00  0.00  0.00  0.00  0.00
  WS02004411WS02004412    1.00   0.04  0.00  0.00  0.96  0.00  0.00  0.00  0.00  0.00
  WS02004401WS02004402    1.00   0.03  0.00  0.00  0.97  0.00  0.00  0.00  0.00  0.00
  WS02004413WS02003067    1.00   0.04  0.01  0.00  0.00  0.00  0.95  0.00  0.00  0.00
  WS02004412WS02004413    1.00   0.04  0.00  0.00  0.96  0.00  0.00  0.00  0.01  0.00
  WS02004410WS02004411    1.00   0.04  0.00  0.00  0.96  0.00  0.00  0.00  0.00  0.00
  WS02004409WS02004410    1.00   0.04  0.00  0.00  0.96  0.00  0.00  0.00  0.02  0.00
  WS02004407WS02004409    1.00   0.04  0.00  0.00  0.96  0.00  0.00  0.00  0.92  0.00
  WS02004406WS02004407    1.00   0.00  0.04  0.00  0.96  0.00  0.00  0.00  0.00  0.00
  WS02004405WS02004406    1.00   0.00  0.00  0.00  1.00  0.00  0.00  0.00  0.03  0.00
  WS02004404WS02004405    1.00   0.00  0.00  0.00  1.00  0.00  0.00  0.00  0.00  0.00
  WS02004403WS02004404    1.00   0.00  0.03  0.00  0.97  0.00  0.00  0.00  0.00  0.00
  WS02004402WS02004403    1.00   0.03  0.00  0.00  0.97  0.00  0.00  0.00  0.00  0.00
  WS02004139WS02001211    1.00   0.00  0.00  0.00  1.00  0.00  0.00  0.00  0.00  0.00
  WS02004138WS02004139    1.00   0.00  0.00  0.00  1.00  0.00  0.00  0.00  1.00  0.00
  WS02003067WS02003066    1.00   0.05  0.00  0.00  0.95  0.00  0.00  0.00  0.00  0.00
  WS02001213WS02003059    1.00   0.00  0.00  0.00  1.00  0.00  0.00  0.00  0.00  0.00
  WS02001212WS02001213    1.00   0.00  0.00  0.00  0.78  0.00  0.22  0.00  0.00  0.00
  WS02001211WS02001212    1.00   0.00  0.00  0.00  1.00  0.00  0.00  0.00  0.00  0.00
  WS02003072WS02003073    1.00   0.00  0.00  0.00  0.00  0.00  0.00  1.00  0.00  0.00
  WS02003069WS02003072    1.00   0.00  0.00  0.00  1.00  0.00  0.00  0.00  0.23  0.00
  WS02003060WS02003069    1.00   0.00  0.00  0.00  1.00  0.00  0.00  0.00  0.12  0.00
  WS02003059WS02003060    1.00   0.00  0.00  0.00  1.00  0.00  0.00  0.00  0.01  0.00
  HS02004901HS02004770    1.00   0.05  0.00  0.00  0.95  0.00  0.00  0.00  0.00  0.00
  HS02004876HS02004881    1.00   0.00  0.00  0.00  0.96  0.04  0.00  0.00  0.00  0.00
  HS02004870HS02004876    1.00   0.00  0.00  0.00  1.00  0.00  0.00  0.00  0.95  0.00
  HS02004842HS02004848    1.00   0.00  0.05  0.00  0.95  0.00  0.00  0.00  0.58  0.00
  HS02004837HS02004842    1.00   0.00  0.00  0.00  1.00  0.00  0.00  0.00  0.11  0.00
  HS02004830HS02004837    1.00   0.00  0.00  0.00  1.00  0.00  0.00  0.00  0.99  0.00
  HS02004824HS02004830    1.00   0.00  0.00  0.00  1.00  0.00  0.00  0.00  0.00  0.00
  HS02004817HS02004824    1.00   0.00  0.00  0.00  1.00  0.00  0.00  0.00  1.00  0.00
  HS02004770HS02004777    1.00   0.00  0.05  0.00  0.95  0.00  0.00  0.00  0.03  0.00
  HS02004799HS02004480    1.00   0.00  0.01  0.00  0.94  0.00  0.04  0.00  0.00  0.00
  HS02004792HS02004799    1.00   0.00  0.00  0.00  1.00  0.00  0.00  0.00  0.98  0.00
  HS02004788HS02004792    1.00   0.00  0.00  0.00  1.00  0.00  0.00  0.00  0.98  0.00
  HS02004785HS02004788    1.00   0.00  0.00  0.00  1.00  0.00  0.00  0.00  0.00  0.00
  HS02004777HS02004785    1.00   0.00  0.00  0.00  1.00  0.00  0.00  0.00  0.14  0.00
  HS02004480HS02004478    1.00   0.05  0.00  0.00  0.79  0.00  0.00  0.16  0.00  0.00
  HS02004479HS02004480    1.00   0.01  0.00  0.00  0.99  0.00  0.00  0.00  0.13  0.00
  HS02004862HS02004870    1.00   0.00  0.00  0.00  1.00  0.00  0.00  0.00  0.05  0.00
  HS02004848HS02004852    1.00   0.05  0.00  0.00  0.95  0.00  0.00  0.00  0.61  0.00
  HS02004856HS02004862    1.00   0.00  0.06  0.00  0.94  0.00  0.00  0.00  0.80  0.00
  HS02004852HS02004856    1.00   0.05  0.00  0.00  0.95  0.00  0.00  0.00  0.85  0.00
  HS02004802HS02004478    1.00   0.05  0.00  0.00  0.95  0.00  0.00  0.00  0.03  0.00
  HS02004478WS02006287    1.00   0.06  0.00  0.00  0.83  0.12  0.00  0.00  0.66  0.00
  HS02004817HS02004807    1.00   0.00  0.05  0.00  0.95  0.00  0.00  0.00  0.01  0.00
  HS02004807HS02004802    1.00   0.05  0.00  0.00  0.95  0.00  0.00  0.00  0.00  0.00
  YS02001759YS02001757    1.00   0.00  0.00  0.00  1.00  0.00  0.00  0.00  0.16  0.00
  YS02001762YS02001759    1.00   0.00  0.00  0.00  1.00  0.00  0.00  0.00  0.04  0.00
  YS02001765YS02001762    1.00   0.00  0.00  0.00  1.00  0.00  0.00  0.00  0.16  0.00
  YS02001770YS02001767    1.00   0.00  0.00  0.00  1.00  0.00  0.00  0.00  0.00  0.00
  YS02001774YS02001770    1.00   0.00  0.05  0.00  0.95  0.00  0.00  0.00  0.04  0.00
  YS02001779YS02001774    1.00   0.00  0.00  0.00  1.00  0.00  0.00  0.00  0.21  0.00
  YS02001649YS02001757    1.00   0.00  0.00  0.00  1.00  0.00  0.00  0.00  0.17  0.00
  YS02001767YS02001765    1.00   0.00  0.00  0.00  1.00  0.00  0.00  0.00  0.00  0.00
  YS02006561YS02001783    1.00   0.07  0.00  0.00  0.31  0.63  0.00  0.00  0.58  0.00
  YS02001783YS02001784    1.00   0.00  0.07  0.00  0.93  0.00  0.00  0.00  0.01  0.00
  YS02001784YS02001785    1.00   0.00  0.00  0.00  1.00  0.00  0.00  0.00  0.20  0.00
  YS02001788YS02001790    1.00   0.00  0.00  0.00  0.39  0.61  0.00  0.00  0.49  0.00
  YS02001790YS02001791    1.00   0.00  0.00  0.00  0.33  0.67  0.00  0.00  0.42  0.00
  YS02001791YS02001793    1.00   0.00  0.00  0.00  0.34  0.66  0.00  0.00  0.02  0.00
  YS02001910YS02001907    1.00   0.00  0.00  0.00  0.99  0.00  0.00  0.01  0.13  0.00
  YS02001786YS02001788    1.00   0.00  0.00  0.00  0.38  0.62  0.00  0.00  0.00  0.00
  YS02001915YS02001910    1.00   0.00  0.00  0.00  0.99  0.01  0.00  0.00  0.18  0.00
  YS02001918YS02001915    1.00   0.00  0.00  0.00  1.00  0.00  0.00  0.00  0.58  0.00
  YS02001923YS02001920    1.00   0.00  0.00  0.00  1.00  0.00  0.00  0.00  0.85  0.00
  YS02001926YS02001923    1.00   0.00  0.04  0.00  0.06  0.00  0.90  0.00  0.00  0.00
  YS02001929YS02001926    1.00   0.00  0.05  0.00  0.95  0.00  0.00  0.00  0.78  0.00
  YS02001920YS02001918    1.00   0.00  0.00  0.00  1.00  0.00  0.00  0.00  0.00  0.00
  YS02001629YS02163301    1.00   0.06  0.00  0.00  0.94  0.00  0.00  0.00  0.00  0.00
  YS02001619YS02001622    1.00   0.05  0.00  0.00  0.95  0.00  0.00  0.00  0.00  0.00
  YS02001622YS02001625    1.00   0.05  0.00  0.00  0.95  0.00  0.00  0.00  0.07  0.00
  YS02001625YS02001629    1.00   0.05  0.02  0.00  0.92  0.00  0.01  0.00  0.00  0.00
  YS02163301YS02001633    1.00   0.00  0.06  0.00  0.94  0.00  0.00  0.00  0.00  0.00
  YS02163601YS02164001    1.00   0.00  0.04  0.00  0.96  0.00  0.00  0.00  0.00  0.00
  YS02164001YS02001641    1.00   0.00  0.04  0.00  0.96  0.00  0.00  0.00  0.06  0.00
  YS02001641YS02001644    1.00   0.00  0.00  0.00  1.00  0.00  0.00  0.00  0.00  0.00
  YS02001647YS02001649    1.00   0.00  0.06  0.00  0.94  0.00  0.00  0.00  0.01  0.00
  YS02006553YS02006556    1.00   0.00  0.00  0.00  1.00  0.00  0.00  0.00  0.03  0.00
  YS02006556YS02006558    1.00   0.00  0.00  0.00  1.00  0.00  0.00  0.00  0.00  0.00
  YSB6556YSB1171          1.00   0.02  0.03  0.00  0.95  0.00  0.00  0.00  0.00  0.00
  YS02001907YS02006553    1.00   0.00  0.00  0.00  1.00  0.00  0.00  0.00  0.00  0.00
  YS02006558YS02006561    1.00   0.07  0.00  0.00  0.08  0.85  0.00  0.00  0.49  0.00
  YS02001633YS02163601    1.00   0.00  0.00  0.00  1.00  0.00  0.00  0.00  0.16  0.00
  YS02001644YS02001647    1.00   0.00  0.06  0.00  0.94  0.00  0.00  0.00  0.00  0.00
  YS02001745YS02001748    1.00   0.00  0.00  0.00  0.90  0.00  0.00  0.09  0.04  0.00
  YS02001748YS02001751    1.00   0.00  0.00  0.00  0.97  0.03  0.00  0.00  0.15  0.00
  YS02001751YS02001754    1.00   0.00  0.00  0.00  0.93  0.00  0.00  0.07  0.02  0.00
  YS02001754YS02001757    1.00   0.00  0.00  0.00  1.00  0.00  0.00  0.00  0.20  0.00
  YS02001882YS02001884    1.00   0.05  0.00  0.00  0.94  0.00  0.00  0.00  0.00  0.00
  YS02001884YS02001887    1.00   0.03  0.01  0.00  0.95  0.00  0.00  0.00  0.00  0.00
  YS02001890YS02001895    1.00   0.00  0.06  0.00  0.94  0.00  0.00  0.00  0.00  0.00
  YS02001895YS02001898    1.00   0.06  0.00  0.00  0.93  0.00  0.01  0.00  0.00  0.00
  YS02001898YS02001901    1.00   0.06  0.00  0.00  0.94  0.00  0.00  0.00  0.02  0.00
  YS02001901YS02001904    1.00   0.06  0.00  0.00  0.94  0.00  0.00  0.00  0.00  0.00
  YS02001904YS02001907    1.00   0.00  0.06  0.00  0.94  0.00  0.00  0.00  0.00  0.00
  YS02001887YS02001890    1.00   0.00  0.00  0.00  0.99  0.00  0.01  0.00  0.00  0.00
  YS02001652YS02001649    1.00   0.00  0.00  0.00  1.00  0.00  0.00  0.00  0.18  0.00
  YS02001655YS02001652    1.00   0.00  0.00  0.00  0.93  0.00  0.00  0.07  0.02  0.00
  YS02001658YS02001655    1.00   0.00  0.05  0.00  0.92  0.03  0.00  0.00  0.11  0.00
  YS02001661YS02001658    1.00   0.05  0.00  0.00  0.90  0.05  0.00  0.00  0.06  0.00
  YS02001664YS02001661    1.00   0.05  0.00  0.00  0.92  0.04  0.00  0.00  0.21  0.00
  YSB1154YSB6556          1.00   0.05  0.00  0.00  0.95  0.00  0.00  0.00  0.02  0.00
  YSB1174YSB1171          1.00   0.03  0.01  0.00  0.96  0.00  0.00  0.00  0.00  0.00
  YSB1171HS02004479       1.00   0.01  0.00  0.00  0.97  0.00  0.00  0.02  0.11  0.00
  HS02004881HS02006253    1.00   0.03  0.00  0.00  0.56  0.01  0.00  0.41  0.36  0.00
  YS02001793JiankangQianchi    1.00   0.00  0.00  0.00  0.56  0.44  0.00  0.00  0.20  0.00
  YS02001757CaochengTiaoxuchi    1.00   0.00  0.08  0.00  0.92  0.00  0.00  0.00  0.00  0.00
  WSF200WS02003060        1.00   0.00  0.05  0.00  0.75  0.20  0.00  0.00  0.39  0.00
  1                       1.00   0.00  0.00  0.00  0.00  1.00  0.00  0.00  0.34  0.00
  2                       1.00   0.73  0.00  0.00  0.00  0.27  0.00  0.00  0.04  0.00
  3                       1.00   0.24  0.00  0.00  0.00  0.76  0.00  0.00  0.01  0.00
  4                       1.00   1.00  0.00  0.00  0.00  0.00  0.00  0.00  0.00  0.00
  
  
  *************************
  Conduit Surcharge Summary
  *************************
  
  ----------------------------------------------------------------------------
                                                           Hours        Hours 
                         --------- Hours Full --------   Above Full   Capacity
  Conduit                Both Ends  Upstream  Dnstream   Normal Flow   Limited
  ----------------------------------------------------------------------------
  WS02006229WS02006228        1.02      1.28      1.02      3.34         1.02
  WS02006256WS02006235        4.73      4.73      7.23      2.70         0.01
  WS02006252WS02006251        1.01      1.01      1.62      1.46         0.01
  WS02006251WS02006249        0.01      0.01      0.01      0.96         0.01
  WS02006249WS02006248        0.01      0.01      0.01      2.38         0.01
  WS02006247WS02006245        0.01      0.01      0.01      2.87         0.01
  WS02006245WS02006243        0.01      0.01      0.01      0.02         0.01
  WS02006243WS02006242        0.01      0.01      0.66      0.01         0.01
  WS02006242WS02006240        0.01      0.01      0.89      1.50         0.01
  WS02006240WS02006239        0.01      0.01      0.01      0.01         0.01
  WS02006239WS02006238        0.74      0.74      0.87      0.01         0.01
  WS02006238WS02006235        0.72      0.72      1.07      0.01         0.01
  WS02006235WS02006234        0.01      0.01      0.66      4.07         0.01
  WS02006234WS02006232        0.01      0.01      1.10      0.01         0.01
  WS02006232WS02006231        0.01      0.01      1.10      0.01         0.01
  WS02006231WS02006230        0.01      0.01      0.01      4.33         0.01
  WS02006230WS02006229        2.18      2.68      2.18      5.45         2.18
  WS02006228WS02006109        1.11      1.79      1.11      4.65         1.11
  WS02006111WS02006112        0.01      0.01      3.70      0.01         0.01
  WS02006110WS02006113        0.01      0.01      1.54      0.01         0.01
  WS02006109WS02006110        0.01      0.01      1.79      0.01         0.01
  WS02004404WS02004405        0.01      0.01      0.01      5.70         0.01
  WS02003072WS02003073        0.01      0.01      0.01      4.82         0.01
  HS02004480HS02004478        0.01      0.01      0.01      0.25         0.01
  YS02001759YS02001757        5.66      5.66      5.74      0.01         0.01
  YS02001762YS02001759        5.64      5.64      5.66      0.01         0.01
  YS02001765YS02001762        5.62      5.62      5.64      0.01         0.01
  YS02001770YS02001767        5.59      5.59      5.59      0.21         0.69
  YS02001774YS02001770        5.58      5.58      5.63      0.01         0.01
  YS02001779YS02001774        5.46      5.46      5.63      0.01         0.01
  YS02001649YS02001757        5.64      5.64      5.74      0.01         0.01
  YS02001767YS02001765        5.59      5.59      5.62      0.01         0.01
  YS02006561YS02001783        0.67      0.67      1.48      0.01         0.01
  YS02001783YS02001784        1.48      1.48      1.56      1.06         1.08
  YS02001784YS02001785        1.49      1.56      1.49      2.04         1.48
  YS02001788YS02001790        1.46      1.46      2.54      0.01         0.01
  YS02001790YS02001791        2.54      2.54      2.58      0.50         0.49
  YS02001791YS02001793        2.58      2.58      2.69      0.01         0.01
  YS02001910YS02001907        1.02      1.02      1.50      0.01         0.01
  YS02001786YS02001788        1.46      1.49      1.46      1.70         1.45
  YS02001915YS02001910        0.79      0.79      1.02      0.01         0.01
  YS02001918YS02001915        0.54      0.54      0.79      0.01         0.01
  YS02001923YS02001920        0.33      0.33      0.57      0.01         0.01
  YS02001920YS02001918        0.54      0.54      0.57      0.01         0.01
  YS02001629YS02163301        5.57      5.57      5.59      0.01         0.01
  YS02001619YS02001622        5.28      5.28      5.31      0.01         0.01
  YS02001622YS02001625        5.31      5.31      5.55      0.01         0.01
  YS02001625YS02001629        5.29      5.29      5.55      0.01         0.01
  YS02163301YS02001633        5.59      5.59      5.61      0.01         0.01
  YS02163601YS02164001        5.61      5.61      5.64      0.01         0.01
  YS02164001YS02001641        5.61      5.61      5.62      0.01         0.03
  YS02001641YS02001644        5.62      5.62      5.62      1.22         1.25
  YS02001647YS02001649        5.53      5.53      5.64      0.01         0.01
  YS02006553YS02006556        1.24      1.24      1.57      0.01         0.01
  YS02006556YS02006558        1.38      1.38      1.65      0.01         0.01
  YS02001907YS02006553        2.10      2.10      2.31      0.01         0.01
  YS02006558YS02006561        0.90      1.20      0.90      1.93         0.90
  YS02001633YS02163601        5.61      5.61      5.64      0.01         0.01
  YS02001644YS02001647        5.53      5.53      5.62      0.01         0.01
  YS02001745YS02001748        0.01      0.01      5.12      0.01         0.01
  YS02001748YS02001751        5.16      5.16      5.29      0.01         0.01
  YS02001751YS02001754        5.29      5.29      5.48      0.01         0.01
  YS02001754YS02001757        5.53      5.53      5.74      0.01         0.01
  YS02001882YS02001884        0.81      0.81      0.84      0.01         0.01
  YS02001884YS02001887        0.90      0.90      0.93      0.01         0.01
  YS02001890YS02001895        0.78      0.78      1.04      0.01         0.01
  YS02001895YS02001898        0.76      0.76      0.78      0.01         0.01
  YS02001898YS02001901        0.79      0.79      0.90      0.01         0.01
  YS02001901YS02001904        0.87      0.87      0.90      0.01         0.01
  YS02001904YS02001907        0.87      0.87      1.59      0.01         0.01
  YS02001887YS02001890        0.97      0.97      1.00      0.01         0.01
  YS02001652YS02001649        5.54      5.54      5.64      0.01         0.01
  YS02001655YS02001652        5.30      5.30      5.52      0.01         0.01
  YS02001658YS02001655        5.15      5.15      5.30      0.01         0.01
  YS02001661YS02001658        0.16      0.16      5.15      0.01         0.01
  YS02001664YS02001661        0.01      0.01      1.22      0.01         0.01
  YS02001793JiankangQianchi        2.66      2.66      4.08      0.01         0.01
  YS02001757CaochengTiaoxuchi        5.01      5.01      5.74      0.01         0.01
  
  
  ***************
  Pumping Summary
  ***************
  
  ---------------------------------------------------------------------------------------------------------
                                                  Min       Avg       Max     Total     Power    % Time Off
                        Percent   Number of      Flow      Flow      Flow    Volume     Usage    Pump Curve
  Pump                 Utilized   Start-Ups       LPS       LPS       LPS  10^6 ltr     Kw-hr    Low   High
  ---------------------------------------------------------------------------------------------------------
  CC-Pump-1               42.54           5      0.00    125.49    200.00     1.500      1.61    0.0    0.0
  CC-Pump-2               44.67           5      0.00    129.07    200.00     1.620      1.69    0.0    0.0
  JK-Pump-1               51.06           4      0.00    154.09    300.00     1.886     25.32    0.0    0.0
  JK-Pump-2               63.82           7      0.00    148.47    300.00     2.142     29.06    0.0    0.0
  XR-Pump-1               91.47           7      0.00     71.01     95.00     1.938     14.09    0.0    0.0
  XR-Pump-2               93.61           4      0.00     74.74     95.00     2.109     15.40    0.0    0.0
  XR-Pump-3               85.09           7      0.00     72.78     95.00     1.824     13.55    0.0    0.0
  XR-Pump-4               44.67           6      0.00     60.05     95.00     0.741      4.54    0.0    0.0
  

  Analysis begun on:  Wed Dec 22 10:00:46 2021
  Analysis ended on:  Wed Dec 22 10:00:49 2021
  Total elapsed time: 00:00:03