
  EPA STORM WATER MANAGEMENT MODEL - VERSION 5.1 (Build 5.3.0.dev0)
  --------------------------------------------------------------

  WARNING 04: minimum elevation drop used for Conduit WS02004404WS02004405
  WARNING 03: negative offset ignored for Link YS02001904YS02001907
  
  *********************************************************
  NOTE: The summary statistics displayed in this report are
  based on results found at every computational time step,  
  not just on results from each reporting time step.
  *********************************************************
  
  ****************
  Analysis Options
  ****************
  Flow Units ............... LPS
  Process Models:
    Rainfall/Runoff ........ YES
    RDII ................... NO
    Snowmelt ............... NO
    Groundwater ............ NO
    Flow Routing ........... YES
    Ponding Allowed ........ NO
    Water Quality .......... NO
  Infiltration Method ...... HORTON
  Flow Routing Method ...... DYNWAVE
  Surcharge Method ......... EXTRAN
  Starting Date ............ 08/28/2015 08:00:00
  Ending Date .............. 08/28/2015 15:50:00
  Antecedent Dry Days ...... 8.0
  Report Time Step ......... 00:01:00
  Wet Time Step ............ 00:01:00
  Dry Time Step ............ 00:01:00
  Routing Time Step ........ 5.00 sec
  Variable Time Step ....... YES
  Maximum Trials ........... 8
  Number of Threads ........ 4
  Head Tolerance ........... 0.001500 m
  
  
  **************************        Volume         Depth
  Runoff Quantity Continuity     hectare-m            mm
  **************************     ---------       -------
  Total Precipitation ......         6.144        13.452
  Evaporation Loss .........         0.000         0.000
  Infiltration Loss ........         1.572         3.442
  Surface Runoff ...........         3.480         7.619
  Final Storage ............         1.093         2.393
  Continuity Error (%) .....        -0.016
  
  
  **************************        Volume        Volume
  Flow Routing Continuity        hectare-m      10^6 ltr
  **************************     ---------     ---------
  Dry Weather Inflow .......         0.616         6.165
  Wet Weather Inflow .......         3.479        34.785
  Groundwater Inflow .......         0.000         0.000
  RDII Inflow ..............         0.000         0.000
  External Inflow ..........         0.102         1.024
  External Outflow .........         1.776        17.763
  Flooding Loss ............         1.869        18.694
  Evaporation Loss .........         0.000         0.000
  Exfiltration Loss ........         0.000         0.000
  Initial Stored Volume ....         0.076         0.761
  Final Stored Volume ......         0.642         6.418
  Continuity Error (%) .....        -0.328
  
  
  *************************
  Highest Continuity Errors
  *************************
  Node HS02004842 (15.28%)
  Node YS02001884 (12.72%)
  Node YSB1171 (2.79%)
  Node HS02004817 (2.78%)
  Node YS02001767 (2.17%)
  
  
  ***************************
  Time-Step Critical Elements
  ***************************
  Link WS02006252WS02006251 (42.19%)
  Link 3 (41.86%)
  Link WS02006280WS02006229 (5.82%)
  Link WS02006238WS02006235 (3.94%)
  
  
  ********************************
  Highest Flow Instability Indexes
  ********************************
  Link YS02163301YS02001633 (44)
  Link YS02163601YS02164001 (44)
  Link YS02001629YS02163301 (43)
  Link WS02006113WS02006111 (42)
  Link YS02001619YS02001622 (41)
  
  
  *************************
  Routing Time Step Summary
  *************************
  Minimum Time Step           :     0.50 sec
  Average Time Step           :     0.88 sec
  Maximum Time Step           :     5.00 sec
  Percent in Steady State     :    -0.00
  Average Iterations per Step :     4.73
  Percent Not Converging      :    21.92
  
  
  ***************************
  Subcatchment Runoff Summary
  ***************************
  
  ------------------------------------------------------------------------------------------------------------------------------
                            Total      Total      Total      Total     Imperv       Perv      Total       Total     Peak  Runoff
                           Precip      Runon       Evap      Infil     Runoff     Runoff     Runoff      Runoff   Runoff   Coeff
  Subcatchment                 mm         mm         mm         mm         mm         mm         mm    10^6 ltr      LPS
  ------------------------------------------------------------------------------------------------------------------------------
  sub0                      13.45       0.00       0.00       0.89      11.25       0.05      11.30        0.01     3.67   0.840
  sub1                      13.45       0.00       0.00       1.45      10.71       0.03      10.74        0.07    24.31   0.799
  sub2                      13.45       0.00       0.00       4.95       7.56       0.02       7.58        0.07    22.93   0.564
  sub3                      13.45       0.00       0.00       4.96       7.52       0.02       7.54        0.17    51.30   0.560
  sub4                      13.45       0.00       0.00       1.46      10.54       0.02      10.56        0.22    61.94   0.785
  sub5                      13.45       0.00       0.00       0.91      11.19       0.03      11.22        0.13    43.21   0.834
  sub7                      13.45       0.00       0.00       1.17      10.98       0.04      11.03        0.04    13.69   0.820
  sub8                      13.45       0.00       0.00       1.17      10.97       0.04      11.01        0.07    25.15   0.819
  sub9                      13.45       0.00       0.00       1.17      10.97       0.04      11.01        0.05    18.81   0.818
  sub10                     13.45       0.00       0.00       1.04      11.08       0.03      11.11        0.12    42.29   0.826
  sub11                     13.45       0.00       0.00       1.04      11.10       0.04      11.14        0.13    46.68   0.828
  sub12                     13.45       0.00       0.00       1.69      10.51       0.06      10.58        0.09    35.94   0.786
  sub14                     13.45       0.00       0.00       1.17      10.97       0.04      11.01        0.10    37.02   0.818
  sub15                     13.45       0.00       0.00       4.00       8.43       0.04       8.47        0.15    51.03   0.630
  sub16                     13.45       0.00       0.00       4.38       8.09       0.06       8.15        0.09    32.58   0.606
  sub17                     13.45       0.00       0.00       4.25       8.21       0.06       8.27        0.07    26.73   0.615
  sub22                     13.45       0.00       0.00       5.74       6.88       0.04       6.92        0.44   159.06   0.514
  sub23                     13.45       0.00       0.00       4.93       7.60       0.05       7.65        0.36   133.95   0.569
  sub60                     13.45       0.00       0.00       1.61       8.73       0.00       8.74        2.65   387.96   0.649
  sub61                     13.45       0.00       0.00       2.28       8.88       0.00       8.88        2.74   483.52   0.660
  sub62                     13.45       0.00       0.00       1.07       9.65       0.00       9.66        2.97   496.42   0.718
  sub63                     13.45       0.00       0.00       3.90       7.77       0.00       7.77        2.35   446.68   0.578
  sub64                     13.45       0.00       0.00       2.01       8.38       0.00       8.38        2.55   368.35   0.623
  sub65                     13.45       0.00       0.00       1.75       8.52       0.00       8.52        2.62   373.60   0.634
  sub66                     13.45       0.00       0.00       3.90       7.19       0.00       7.19        2.21   337.96   0.535
  sub67                     13.45       0.00       0.00       1.07      10.19       0.01      10.19        3.15   622.58   0.758
  sub68                     13.45       0.00       0.00       1.88       9.34       0.01       9.34        2.87   531.38   0.694
  sub69                     13.45       0.00       0.00       2.01       9.68       0.01       9.69        2.26   503.32   0.720
  sub70                     13.45       9.89       0.00       7.67      12.93       0.26      13.20        3.02   423.72   0.565
  sub71                     13.45       0.00       0.00       1.07       9.40       0.00       9.40        2.22   347.35   0.699
  sub72                     13.45       0.00       0.00       0.94       7.49       0.00       7.50        1.53   163.23   0.557
  sub73                     13.45      12.84       0.00       8.67      14.26       0.27      14.53        3.41   375.92   0.552
  sub74                     13.45       0.00       0.00      10.09       2.88       0.00       2.89        1.15   273.25   0.215
  
  
  ******************
  Node Depth Summary
  ******************
  
  ---------------------------------------------------------------------------------
                                 Average  Maximum  Maximum  Time of Max    Reported
                                   Depth    Depth      HGL   Occurrence   Max Depth
  Node                 Type       Meters   Meters   Meters  days hr:min      Meters
  ---------------------------------------------------------------------------------
  WS02001211           JUNCTION     0.63     0.77     5.61     0  03:51        0.77
  WS02001212           JUNCTION     0.36     0.48     5.55     0  03:51        0.48
  WS02001213           JUNCTION     0.60     0.74     5.50     0  03:06        0.74
  WS02003069           JUNCTION     0.43     0.62     5.20     0  03:06        0.62
  WS02003072           JUNCTION     0.50     0.67     5.04     0  03:07        0.67
  WS02003073           JUNCTION     0.30     0.42     4.48     0  03:08        0.42
  WS02003060           JUNCTION     0.38     0.54     5.48     0  03:06        0.54
  WS02003066           JUNCTION     0.24     0.35     5.91     0  03:06        0.35
  WS02003059           JUNCTION     0.66     0.81     5.49     0  03:06        0.81
  WS02003067           JUNCTION     0.58     0.78     6.10     0  03:05        0.78
  WS02004401           JUNCTION     0.68     1.09     7.09     0  03:03        1.08
  WS02004402           JUNCTION     0.71     1.09     7.05     0  03:03        1.09
  WS02004403           JUNCTION     0.73     1.08     7.01     0  03:03        1.08
  WS02004404           JUNCTION     0.81     1.14     6.99     0  03:03        1.14
  WS02004406           JUNCTION     0.81     1.09     6.92     0  03:03        1.09
  WS02004409           JUNCTION     0.50     0.83     6.60     0  03:05        0.83
  WS02004410           JUNCTION     0.52     0.83     6.55     0  03:05        0.83
  WS02004411           JUNCTION     0.53     0.83     6.51     0  03:05        0.83
  WS02004412           JUNCTION     0.55     0.82     6.46     0  03:06        0.82
  WS02004413           JUNCTION     0.71     0.96     6.43     0  03:06        0.96
  WS02004405           JUNCTION     0.80     1.12     6.97     0  03:03        1.12
  WS02006109           JUNCTION     0.76     1.22     7.84     0  03:03        1.21
  WS02006110           JUNCTION     0.76     1.08     7.67     0  03:03        1.08
  WS02006111           JUNCTION     0.23     0.56     7.26     0  03:03        0.56
  WS02006112           JUNCTION     0.85     1.35     7.24     0  03:04        1.34
  WS02006113           JUNCTION     0.34     0.58     7.47     0  03:03        0.58
  WS02006115           JUNCTION     0.58     1.03     7.17     0  03:03        1.03
  WS02006116           JUNCTION     0.66     1.09     7.13     0  03:03        1.09
  WS02006230           JUNCTION     0.73     1.36     8.10     0  03:02        1.33
  WS02006231           JUNCTION     0.49     0.99     8.12     0  03:02        0.97
  WS02006232           JUNCTION     0.62     1.09     8.13     0  03:02        1.06
  WS02006234           JUNCTION     0.53     0.99     8.15     0  03:02        0.95
  WS02006235           JUNCTION     0.56     0.99     8.15     0  03:02        0.96
  WS02006238           JUNCTION     0.59     1.01     8.15     0  03:02        0.98
  WS02006240           JUNCTION     0.48     0.93     8.22     0  03:02        0.87
  WS02006242           JUNCTION     0.53     0.95     8.22     0  03:02        0.91
  WS02006243           JUNCTION     0.41     0.81     8.23     0  03:03        0.78
  WS02006245           JUNCTION     0.39     0.74     8.23     0  03:02        0.74
  WS02006247           JUNCTION     0.41     0.86     8.36     0  03:02        0.73
  WS02006248           JUNCTION     0.35     0.66     8.25     0  03:10        0.66
  WS02006249           JUNCTION     0.38     0.66     8.26     0  03:10        0.66
  WS02006239           JUNCTION     0.54     0.97     8.18     0  03:02        0.93
  WS02006251           JUNCTION     0.37     0.71     8.38     0  03:10        0.71
  WS02006252           JUNCTION     0.32     0.59     8.83     0  03:39        0.59
  WS02006253           JUNCTION     0.40     0.74     8.39     0  03:10        0.74
  WS02006256           JUNCTION     1.03     1.22     8.15     0  03:10        1.22
  WS02004138           JUNCTION     0.14     0.19     7.44     0  03:50        0.19
  WS02004407           JUNCTION     0.23     0.36     6.67     0  03:04        0.36
  WS02006228           JUNCTION     0.77     1.33     7.99     0  03:02        1.33
  WS02006229           JUNCTION     0.74     1.37     8.06     0  03:02        1.37
  WS02006280           JUNCTION     0.07     0.24     8.52     0  03:02        0.24
  WS02006284           JUNCTION     0.37     0.63     9.02     0  03:02        0.62
  WS02006287           JUNCTION     0.10     0.37     9.32     0  03:02        0.37
  WSF200               JUNCTION     0.23     0.38     5.62     0  03:06        0.38
  HS02004901           JUNCTION     0.12     0.35    10.17     0  03:01        0.35
  HS02004881           JUNCTION     0.01     0.05     9.08     0  03:01        0.05
  HS02004876           JUNCTION     0.04     0.15     9.18     0  03:01        0.15
  HS02004870           JUNCTION     0.02     0.09     9.37     0  03:01        0.09
  HS02004862           JUNCTION     0.02     0.10     9.49     0  03:01        0.10
  HS02004856           JUNCTION     0.08     0.15     9.57     0  03:01        0.15
  HS02004852           JUNCTION     0.01     0.07     9.58     0  03:02        0.07
  HS02004848           JUNCTION     0.01     0.06     9.67     0  03:01        0.06
  HS02004842           JUNCTION     0.33     0.40     9.67     0  03:01        0.40
  HS02004837           JUNCTION     0.03     0.09     9.67     0  03:01        0.09
  HS02004830           JUNCTION     0.04     0.10     9.57     0  03:01        0.10
  HS02004824           JUNCTION     0.03     0.11     9.51     0  03:02        0.11
  HS02004817           JUNCTION     0.44     0.67     9.52     0  03:02        0.67
  HS02004807           JUNCTION     0.13     0.34     9.51     0  03:02        0.34
  HS02004802           JUNCTION     0.17     0.38     9.50     0  03:02        0.38
  HS02004799           JUNCTION     0.12     0.43     9.65     0  03:01        0.43
  HS02004792           JUNCTION     0.03     0.20     9.72     0  03:01        0.19
  HS02004788           JUNCTION     0.03     0.14    10.04     0  03:02        0.14
  HS02004785           JUNCTION     0.05     0.23    10.13     0  03:02        0.23
  HS02004777           JUNCTION     0.15     0.37    10.17     0  03:01        0.37
  HS02004770           JUNCTION     0.12     0.34    10.17     0  03:01        0.34
  HS02004480           JUNCTION     0.08     0.35     9.59     0  03:01        0.35
  HS02004479           JUNCTION     0.12     0.39     9.60     0  03:01        0.39
  HS02004478           JUNCTION     0.06     0.26     9.48     0  03:01        0.26
  YS02001745           JUNCTION     0.75     0.90     8.42     0  03:26        0.90
  YS02001748           JUNCTION     1.15     1.44     8.52     0  02:43        1.33
  YS02001751           JUNCTION     1.33     1.55     8.43     0  03:26        1.53
  YS02001754           JUNCTION     1.58     1.83     8.44     0  03:21        1.81
  YS02001762           JUNCTION     1.78     2.04     8.44     0  03:00        2.02
  YS02001765           JUNCTION     1.73     1.99     8.44     0  03:00        1.97
  YS02001767           JUNCTION     1.70     1.94     8.43     0  03:22        1.93
  YS02001770           JUNCTION     1.69     1.92     8.42     0  02:59        1.91
  YS02001774           JUNCTION     1.76     1.98     8.40     0  03:28        1.98
  YS02001779           JUNCTION     1.51     1.68     8.37     0  02:49        1.68
  YS02001882           JUNCTION     0.60     1.63     8.35     0  03:01        1.62
  YS02001884           JUNCTION     0.69     1.73     8.35     0  03:01        1.73
  YS02001759           JUNCTION     1.81     2.08     8.44     0  03:06        2.07
  YS02001887           JUNCTION     0.77     1.81     8.35     0  03:01        1.80
  YS02001890           JUNCTION     0.80     1.81     8.32     0  02:50        1.81
  YS02001898           JUNCTION     0.57     1.57     8.30     0  02:51        1.56
  YS02001901           JUNCTION     0.68     1.68     8.29     0  02:51        1.67
  YS02001904           JUNCTION     0.66     1.64     8.27     0  02:51        1.63
  YS02001907           JUNCTION     0.99     1.96     8.25     0  02:50        1.96
  YS02001910           JUNCTION     0.78     1.79     8.30     0  02:52        1.77
  YS02001915           JUNCTION     0.58     1.61     8.33     0  02:52        1.59
  YS02001918           JUNCTION     0.33     1.29     8.36     0  02:52        1.28
  YS02001619           JUNCTION     1.29     1.50     8.43     0  02:44        1.48
  YS02001629           JUNCTION     1.64     1.85     8.40     0  07:20        1.84
  YS02001641           JUNCTION     1.74     1.93     8.37     0  02:55        1.93
  YS02001644           JUNCTION     1.74     1.92     8.35     0  02:47        1.92
  YS02001652           JUNCTION     1.59     2.16     8.76     0  02:56        1.93
  YS02001655           JUNCTION     1.36     2.20     9.05     0  02:56        1.81
  YS02001920           JUNCTION     0.43     1.38     8.38     0  02:52        1.36
  YS02001923           JUNCTION     0.26     1.14     8.40     0  02:52        1.13
  YS02001926           JUNCTION     0.30     0.98     8.42     0  02:52        0.97
  YS02001929           JUNCTION     0.18     0.75     8.45     0  02:52        0.70
  YS02001658           JUNCTION     1.09     2.16     9.30     0  03:05        1.82
  YS02001661           JUNCTION     0.86     2.41     9.81     0  02:56        1.82
  YS02001664           JUNCTION     0.38     0.57     8.49     0  03:55        0.57
  YS02001622           JUNCTION     1.31     1.51     8.42     0  02:44        1.49
  YS02001633           JUNCTION     1.73     1.95     8.40     0  03:18        1.94
  YS02001649           JUNCTION     1.79     2.05     8.44     0  02:51        2.05
  YS02001757           JUNCTION     1.91     2.18     8.44     0  03:27        2.16
  YS02001895           JUNCTION     0.56     1.57     8.31     0  03:06        1.56
  YS02001625           JUNCTION     1.60     1.78     8.38     0  02:42        1.78
  YS02163301           JUNCTION     1.67     1.88     8.40     0  07:20        1.87
  YS02163601           JUNCTION     1.78     1.99     8.39     0  07:20        1.98
  YS02164001           JUNCTION     1.72     1.92     8.38     0  07:20        1.91
  YS02001647           JUNCTION     1.58     1.81     8.42     0  02:53        1.79
  YSB1154              JUNCTION     0.26     0.54     9.60     0  03:01        0.54
  YSB6556              JUNCTION     0.15     0.43     9.60     0  03:02        0.43
  YSB1174              JUNCTION     0.21     0.49     9.60     0  03:01        0.49
  YSB1171              JUNCTION     0.41     0.69     9.60     0  03:01        0.69
  YS02006553           JUNCTION     0.99     1.97     8.25     0  03:00        1.96
  YS02006561           JUNCTION     0.35     1.10     7.76     0  02:50        1.08
  YS02006556           JUNCTION     0.96     1.93     8.24     0  03:00        1.93
  YS02006558           JUNCTION     1.00     1.98     8.24     0  03:00        1.96
  YS02001783           JUNCTION     0.59     1.48     7.63     0  02:51        1.47
  YS02001784           JUNCTION     0.61     1.43     7.50     0  02:51        1.41
  YS02001786           JUNCTION     0.55     1.27     7.30     0  02:51        1.26
  YS02001788           JUNCTION     0.48     1.14     7.12     0  02:50        1.13
  YS02001790           JUNCTION     0.61     1.36     7.01     0  02:21        1.29
  YS02001791           JUNCTION     0.60     1.29     6.76     0  02:21        1.27
  YS02001793           JUNCTION     0.87     1.81     6.64     0  02:51        1.80
  WS02004139           JUNCTION     0.57     0.72     5.63     0  03:51        0.72
  WSC                  OUTFALL      0.30     0.42     1.09     0  03:08        0.42
  3                    OUTFALL      0.10     0.22     6.22     0  03:10        0.22
  4                    OUTFALL      0.02     0.16     7.16     0  03:10        0.16
  5                    OUTFALL      0.00     0.00     5.00     0  00:00        0.00
  JK-storage           STORAGE      3.64     5.80     6.60     0  02:22        5.80
  CC-storage           STORAGE      1.17     1.41     8.41     0  03:25        1.41
  XR-storage           STORAGE      7.33     7.72     5.72     0  02:49        7.72
  
  
  *******************
  Node Inflow Summary
  *******************
  
  -------------------------------------------------------------------------------------------------
                                  Maximum  Maximum                  Lateral       Total        Flow
                                  Lateral    Total  Time of Max      Inflow      Inflow     Balance
                                   Inflow   Inflow   Occurrence      Volume      Volume       Error
  Node                 Type           LPS      LPS  days hr:min    10^6 ltr    10^6 ltr     Percent
  -------------------------------------------------------------------------------------------------
  WS02001211           JUNCTION      7.35   380.99     0  03:50       0.207        6.17       0.356
  WS02001212           JUNCTION      0.00   376.49     0  03:51           0        6.15       0.220
  WS02001213           JUNCTION      0.00   374.73     0  03:51           0        6.14       0.289
  WS02003069           JUNCTION      0.32  1033.97     0  03:06     0.00902          14       0.171
  WS02003072           JUNCTION      0.00  1033.80     0  03:07           0          14       0.221
  WS02003073           JUNCTION      1.82  1035.70     0  03:07      0.0514          14       0.242
  WS02003060           JUNCTION     16.53  1033.65     0  03:06       0.466          14       0.166
  WS02003066           JUNCTION      0.00   774.33     0  03:06           0        7.48       0.061
  WS02003059           JUNCTION      0.00   373.88     0  03:52           0        6.12       0.488
  WS02003067           JUNCTION      0.00   773.93     0  03:06           0        7.49       0.129
  WS02004401           JUNCTION      0.00   779.17     0  03:04           0        7.73       0.287
  WS02004402           JUNCTION      0.00   779.38     0  03:04           0         7.7       0.269
  WS02004403           JUNCTION      0.00   779.47     0  03:04           0        7.68       0.245
  WS02004404           JUNCTION      0.16   779.60     0  03:04     0.00457        7.67       0.183
  WS02004406           JUNCTION      0.00   779.62     0  03:04           0        7.64       0.448
  WS02004409           JUNCTION      0.00   779.22     0  03:04           0        7.59       0.226
  WS02004410           JUNCTION      0.00   776.49     0  03:05           0        7.58       0.254
  WS02004411           JUNCTION      0.00   774.58     0  03:05           0        7.56       0.260
  WS02004412           JUNCTION      0.00   773.92     0  03:05           0        7.54       0.279
  WS02004413           JUNCTION      0.00   773.83     0  03:06           0        7.52       0.412
  WS02004405           JUNCTION      0.04   779.63     0  03:04     0.00107        7.66       0.275
  WS02006109           JUNCTION      1.23   767.27     0  03:02      0.0347        7.78       0.274
  WS02006110           JUNCTION      0.00   767.32     0  03:02           0        7.76       0.273
  WS02006111           JUNCTION      0.00   761.00     0  03:03           0        7.73       0.061
  WS02006112           JUNCTION     26.73   778.38     0  03:04      0.0709         7.8       0.389
  WS02006113           JUNCTION      0.00   767.18     0  03:02           0        7.74       0.129
  WS02006115           JUNCTION      0.00   778.36     0  03:04           0        7.77       0.280
  WS02006116           JUNCTION      0.00   779.39     0  03:04           0        7.74       0.245
  WS02006230           JUNCTION     10.28   402.92     0  05:50        0.29        5.69       0.214
  WS02006231           JUNCTION      0.00   392.96     0  05:50           0        5.42       0.198
  WS02006232           JUNCTION      0.00   392.96     0  05:50           0        5.43       0.294
  WS02006234           JUNCTION      0.00   393.10     0  05:50           0        5.44       0.172
  WS02006235           JUNCTION      0.00   393.08     0  05:50           0        5.49       0.176
  WS02006238           JUNCTION      0.00   335.67     0  07:21           0        3.69       0.211
  WS02006240           JUNCTION      0.00   335.64     0  07:21           0        3.69       0.341
  WS02006242           JUNCTION      0.00   336.31     0  07:21           0        3.69       0.395
  WS02006243           JUNCTION      0.00   336.53     0  05:41           0        3.69       0.029
  WS02006245           JUNCTION      0.00   336.83     0  05:41           0         3.7       0.265
  WS02006247           JUNCTION      0.00   336.78     0  05:41           0         3.7       0.185
  WS02006248           JUNCTION      0.00   337.37     0  06:50           0         3.7       0.081
  WS02006249           JUNCTION      0.00   470.16     0  03:10           0        4.06       0.296
  WS02006239           JUNCTION      0.00   335.27     0  07:21           0        3.69       0.295
  WS02006251           JUNCTION      0.08   470.47     0  03:10     0.00217        4.09       0.213
  WS02006252           JUNCTION      0.00   400.00     0  05:40           0        3.66       0.012
  WS02006253           JUNCTION      3.67   134.78     0  03:01     0.00915       0.435       0.815
  WS02006256           JUNCTION      0.00   599.98     0  05:00           0        5.28       0.046
  WS02004138           JUNCTION      0.00   379.98     0  02:50           0        5.99       0.063
  WS02004407           JUNCTION      0.00   779.97     0  03:04           0         7.6       0.102
  WS02006228           JUNCTION      0.00   766.21     0  03:02           0        7.76       0.202
  WS02006229           JUNCTION      0.00   768.16     0  03:02           0        7.78       0.184
  WS02006280           JUNCTION      0.00   611.94     0  03:02           0         2.1       0.003
  WS02006284           JUNCTION      0.10   611.05     0  03:02      0.0027         2.1       0.059
  WS02006287           JUNCTION      0.00   609.82     0  03:02           0         2.1       0.034
  WSF200               JUNCTION      0.00   774.50     0  03:06           0        7.47       0.061
  HS02004901           JUNCTION     32.58    32.58     0  03:01      0.0853      0.0856       2.107
  HS02004881           JUNCTION     13.69   131.68     0  03:01      0.0371       0.403       0.113
  HS02004876           JUNCTION     24.31   119.36     0  03:01      0.0714       0.367       0.153
  HS02004870           JUNCTION     25.15    96.63     0  03:01      0.0703       0.295       0.038
  HS02004862           JUNCTION     23.13    73.48     0  03:01      0.0763       0.225       0.079
  HS02004856           JUNCTION     18.81    51.88     0  03:01      0.0529        0.15       0.971
  HS02004852           JUNCTION      0.00    35.11     0  03:01           0      0.0975       0.061
  HS02004848           JUNCTION     51.30    51.30     0  03:01        0.17        0.17       0.030
  HS02004842           JUNCTION      0.00    15.11     0  03:01           0      0.0851      18.030
  HS02004837           JUNCTION     48.64    62.30     0  03:01       0.302       0.374       0.218
  HS02004830           JUNCTION      0.15    61.39     0  03:01     0.00423       0.364       0.340
  HS02004824           JUNCTION     61.99   121.76     0  03:01       0.222       0.584       0.093
  HS02004817           JUNCTION      0.60   117.99     0  03:02      0.0169       0.601       2.856
  HS02004807           JUNCTION     46.68   158.05     0  03:01       0.129       0.713       0.602
  HS02004802           JUNCTION      0.00   156.91     0  03:03           0       0.709       0.571
  HS02004799           JUNCTION     37.02   389.10     0  03:01       0.105        1.19       0.207
  HS02004792           JUNCTION    159.34   356.47     0  03:01       0.445        1.08       0.038
  HS02004788           JUNCTION     52.70   202.57     0  03:02       0.193       0.638       0.061
  HS02004785           JUNCTION      0.15   157.28     0  03:01     0.00423       0.447       0.111
  HS02004777           JUNCTION      0.03   160.01     0  03:01    0.000846       0.447       1.175
  HS02004770           JUNCTION    133.95   163.78     0  03:01       0.365       0.449       0.699
  HS02004480           JUNCTION      0.00   456.68     0  03:01           0         1.4       0.084
  HS02004479           JUNCTION      0.00    72.19     0  03:02           0       0.228       0.322
  HS02004478           JUNCTION      0.00   609.29     0  03:02           0         2.1       0.019
  YS02001745           JUNCTION    387.96   387.96     0  03:01        2.65        2.65       0.412
  YS02001748           JUNCTION      0.04   485.50     0  02:43     0.00127        2.64       0.856
  YS02001751           JUNCTION      0.01   425.57     0  02:35     0.00031        2.62       0.894
  YS02001754           JUNCTION      0.26   398.58     0  03:01     0.00733         2.6       0.970
  YS02001762           JUNCTION      0.00   351.59     0  02:51           0        1.61       1.328
  YS02001765           JUNCTION      0.00   351.92     0  02:51           0        1.61       1.529
  YS02001767           JUNCTION      0.54   351.92     0  02:51      0.0151        1.64       2.222
  YS02001770           JUNCTION    496.57   496.57     0  03:01        2.97        3.17       1.003
  YS02001774           JUNCTION      0.00   473.85     0  03:28           0        1.71       1.494
  YS02001779           JUNCTION      0.01   474.18     0  03:28    0.000141        1.68       0.929
  YS02001882           JUNCTION      0.00    27.33     0  02:46           0      0.0151      18.600
  YS02001884           JUNCTION      0.00    37.07     0  02:45           0      0.0499      14.571
  YS02001759           JUNCTION    483.56   702.53     0  02:53        2.74        4.13       0.561
  YS02001887           JUNCTION    623.03   623.31     0  03:01        3.16        3.19       0.274
  YS02001890           JUNCTION      0.00   622.90     0  03:01           0        3.14       0.303
  YS02001898           JUNCTION      0.00   516.82     0  03:03           0        3.09       0.114
  YS02001901           JUNCTION      0.00   516.83     0  03:02           0        3.08       0.231
  YS02001904           JUNCTION      0.00   516.83     0  03:04           0        3.08       0.213
  YS02001907           JUNCTION      0.00  1057.30     0  03:01           0        6.88       0.356
  YS02001910           JUNCTION      0.00   541.28     0  03:01           0        3.81       0.314
  YS02001915           JUNCTION    347.37   541.01     0  03:01        2.22        3.85       0.166
  YS02001918           JUNCTION      0.00   270.83     0  02:52           0        1.65       0.120
  YS02001619           JUNCTION    337.96   337.96     0  03:01         2.2         2.2       0.556
  YS02001629           JUNCTION      0.00   206.69     0  02:47           0        1.55       1.905
  YS02001641           JUNCTION      0.00   433.72     0  02:47           0        4.07       0.521
  YS02001644           JUNCTION    368.39  1214.73     0  03:27        2.55        9.62       0.274
  YS02001652           JUNCTION      0.00   476.89     0  03:01           0        2.31       1.032
  YS02001655           JUNCTION      0.15   476.69     0  03:01     0.00434        2.33       1.063
  YS02001920           JUNCTION      2.87   271.08     0  02:52      0.0809        1.64       0.189
  YS02001923           JUNCTION      0.04   257.11     0  02:53     0.00106        1.54       0.052
  YS02001926           JUNCTION      0.05   195.70     0  02:53     0.00147        1.53       0.222
  YS02001929           JUNCTION    163.23   163.23     0  03:01        1.53        1.53       0.038
  YS02001658           JUNCTION      0.00   630.34     0  02:39           0        2.36       0.883
  YS02001661           JUNCTION      0.00   702.52     0  02:52           0        2.97      -0.031
  YS02001664           JUNCTION    446.68   446.68     0  03:01        2.35        2.97       0.230
  YS02001622           JUNCTION      0.00   337.86     0  03:00           0        2.19       1.477
  YS02001633           JUNCTION    373.80   433.78     0  02:47        2.63        4.13       0.784
  YS02001649           JUNCTION      0.00   930.61     0  02:48           0        5.71       0.653
  YS02001757           JUNCTION      0.00  1809.21     0  02:49           0        9.15       1.021
  YS02001895           JUNCTION      0.00   516.80     0  03:02           0        3.09       0.164
  YS02001625           JUNCTION      0.00   338.11     0  03:01           0        2.16       1.816
  YS02163301           JUNCTION      0.00   214.22     0  02:43           0        1.53       1.596
  YS02163601           JUNCTION      0.11   433.71     0  02:47      0.0031         4.1       0.739
  YS02164001           JUNCTION      0.00   433.56     0  02:47           0        4.07       0.496
  YS02001647           JUNCTION      0.00   661.94     0  02:48           0        4.82       0.593
  YSB1154              JUNCTION     43.21    43.21     0  03:01       0.127       0.128       1.144
  YSB6556              JUNCTION      0.00    41.76     0  03:01           0       0.129       0.980
  YSB1174              JUNCTION     35.94    35.94     0  03:01      0.0924      0.0931       1.403
  YSB1171              JUNCTION      0.00    73.32     0  03:01           0       0.227       2.865
  YS02006553           JUNCTION      0.00   671.83     0  03:31           0        6.12       0.259
  YS02006561           JUNCTION      0.00   969.09     0  03:00           0        8.97       0.006
  YS02006556           JUNCTION      0.00   671.98     0  03:32           0        6.12       0.190
  YS02006558           JUNCTION    532.26   969.35     0  03:00         2.9           9       0.061
  YS02001783           JUNCTION      0.00   969.28     0  03:00           0        8.97       0.028
  YS02001784           JUNCTION      1.06   970.22     0  03:00      0.0299        8.99       0.042
  YS02001786           JUNCTION      0.06   970.18     0  03:01     0.00159        8.99       0.041
  YS02001788           JUNCTION      0.07   970.25     0  03:00       0.002        8.99       0.025
  YS02001790           JUNCTION      0.15   970.45     0  03:00     0.00437        8.99       0.028
  YS02001791           JUNCTION      0.00   970.40     0  03:00           0        8.99       0.015
  YS02001793           JUNCTION      0.00   973.92     0  05:37           0        9.08      -0.023
  WS02004139           JUNCTION      0.32   379.64     0  03:50     0.00905        5.99       0.437
  WSC                  OUTFALL       0.00  1035.72     0  03:08           0          14       0.000
  3                    OUTFALL       0.00   545.15     0  03:10           0        3.45       0.000
  4                    OUTFALL       0.00   240.35     0  03:10           0       0.345       0.000
  5                    OUTFALL       0.00     0.00     0  00:00           0           0       0.000 ltr
  JK-storage           STORAGE       0.00  1003.22     0  05:15           0        9.23      -1.247
  CC-storage           STORAGE       0.00  1808.86     0  02:49           0        7.39       0.866
  XR-storage           STORAGE     849.17   849.17     0  03:01        10.2        10.8       0.000
  
  
  **********************
  Node Surcharge Summary
  **********************
  
  Surcharging occurs when water rises above the top of the highest conduit.
  ---------------------------------------------------------------------
                                               Max. Height   Min. Depth
                                   Hours       Above Crown    Below Rim
  Node                 Type      Surcharged         Meters       Meters
  ---------------------------------------------------------------------
  WS02004401           JUNCTION        0.19          0.087        1.573
  WS02004402           JUNCTION        0.21          0.091        1.649
  WS02004403           JUNCTION        0.22          0.083        1.947
  WS02004404           JUNCTION        0.36          0.138        2.642
  WS02004406           JUNCTION        0.30          0.093        2.357
  WS02004405           JUNCTION        0.33          0.120        2.680
  WS02006109           JUNCTION        1.57          0.404        1.416
  WS02006110           JUNCTION        0.51          0.172        1.678
  WS02006112           JUNCTION        0.58          0.354        1.326
  WS02006115           JUNCTION        0.06          0.022        2.228
  WS02006116           JUNCTION        0.08          0.033        2.257
  WS02006230           JUNCTION        0.32          0.275        1.295
  WS02006231           JUNCTION        0.35          0.285        1.245
  WS02006232           JUNCTION        1.49          0.394        1.086
  WS02006234           JUNCTION        0.38          0.271        0.969
  WS02006235           JUNCTION        0.85          0.281        1.009
  WS02006238           JUNCTION        1.12          0.291        1.139
  WS02006240           JUNCTION        0.32          0.215        1.175
  WS02006242           JUNCTION        0.75          0.217        0.603
  WS02006243           JUNCTION        0.22          0.098        0.672
  WS02006245           JUNCTION        0.15          0.035        0.815
  WS02006247           JUNCTION        0.15          0.145        0.615
  WS02006239           JUNCTION        0.50          0.232        1.058
  WS02006252           JUNCTION        1.63          0.193        0.907
  WS02006228           JUNCTION        1.45          0.504        1.696
  YS02001748           JUNCTION        5.07          0.361        0.829
  YS02001751           JUNCTION        5.21          0.553        0.647
  YS02001754           JUNCTION        5.38          0.779        0.371
  YS02001762           JUNCTION        5.52          1.040        0.110
  YS02001765           JUNCTION        5.50          0.987        0.113
  YS02001767           JUNCTION        5.47          0.942        0.088
  YS02001770           JUNCTION        5.46          0.890        0.030
  YS02001774           JUNCTION        5.51          0.981        0.069
  YS02001779           JUNCTION        5.36          0.680        0.000
  YS02001882           JUNCTION        1.05          0.632        0.198
  YS02001884           JUNCTION        1.07          0.674        0.196
  YS02001759           JUNCTION        5.54          1.079        0.131
  YS02001887           JUNCTION        1.16          0.760        0.190
  YS02001890           JUNCTION        1.19          0.760        0.000
  YS02001898           JUNCTION        1.00          0.538        0.202
  YS02001901           JUNCTION        1.13          0.680        0.190
  YS02001904           JUNCTION        1.10          0.644        0.206
  YS02001907           JUNCTION        1.67          0.950        0.000
  YS02001910           JUNCTION        1.24          0.789        0.311
  YS02001915           JUNCTION        1.03          0.608        0.392
  YS02001918           JUNCTION        0.79          0.293        0.517
  YS02001619           JUNCTION        5.20          0.502        0.108
  YS02001629           JUNCTION        5.21          0.469        0.001
  YS02001641           JUNCTION        5.50          0.935        0.165
  YS02001644           JUNCTION        5.50          0.920        0.000
  YS02001652           JUNCTION        5.41          1.130        0.000
  YS02001655           JUNCTION        5.22          1.200        0.000
  YS02001920           JUNCTION        0.83          0.375        0.765
  YS02001658           JUNCTION        5.10          1.162        0.138
  YS02001661           JUNCTION        0.26          1.338        0.052
  YS02001622           JUNCTION        5.24          0.512        0.108
  YS02001633           JUNCTION        5.49          0.926        0.134
  YS02001649           JUNCTION        5.52          1.050        0.000
  YS02001757           JUNCTION        5.62          1.182        0.028
  YS02001895           JUNCTION        1.02          0.567        0.183
  YS02001625           JUNCTION        5.43          0.780        0.000
  YS02163301           JUNCTION        5.46          0.881        0.149
  YS02163601           JUNCTION        5.53          0.990        0.090
  YS02164001           JUNCTION        5.49          0.921        0.179
  YS02001647           JUNCTION        5.42          0.808        0.092
  YS02006553           JUNCTION        1.73          0.970        0.220
  YS02006561           JUNCTION        0.92          0.295        0.855
  YS02006556           JUNCTION        1.44          0.891        0.459
  YS02006558           JUNCTION        1.41          0.875        0.525
  YS02001783           JUNCTION        1.64          0.685        0.915
  YS02001784           JUNCTION        1.69          0.633        0.857
  YS02001786           JUNCTION        1.64          0.474        0.956
  YS02001788           JUNCTION        1.63          0.341        1.139
  YS02001790           JUNCTION        2.48          0.563        0.594
  YS02001791           JUNCTION        2.64          0.488        1.432
  YS02001793           JUNCTION        2.86          0.808        1.792
  
  
  *********************
  Node Flooding Summary
  *********************
  
  Flooding refers to all water that overflows a node, whether it ponds or not.
  --------------------------------------------------------------------------
                                                             Total   Maximum
                                 Maximum   Time of Max       Flood    Ponded
                        Hours       Rate    Occurrence      Volume     Depth
  Node                 Flooded       LPS   days hr:min    10^6 ltr    Meters
  --------------------------------------------------------------------------
  YS02001779              2.84    474.00      0  03:28       1.659     0.000
  YS02001890              0.24    106.86      0  03:01       0.038     0.000
  YS02001907              0.66    618.08      0  03:01       0.744     0.000
  YS02001644              4.20   1214.54      0  03:27       7.788     0.000
  YS02001652              0.01      5.79      0  02:56       0.000     0.000
  YS02001655              0.01     10.02      0  02:56       0.000     0.000
  YS02001649              0.10     37.29      0  02:54       0.004     0.000
  YS02001625              1.19    318.32      0  03:01       0.571     0.000
  JK-storage              2.23    969.39      0  03:00       3.996     0.000
  XR-storage              5.00    573.66      0  03:01       3.895     0.000
  
  
  **********************
  Storage Volume Summary
  **********************
  
  --------------------------------------------------------------------------------------------------
                         Average     Avg  Evap Exfil       Maximum     Max    Time of Max    Maximum
                          Volume    Pcnt  Pcnt  Pcnt        Volume    Pcnt     Occurrence    Outflow
  Storage Unit           1000 m3    Full  Loss  Loss       1000 m3    Full    days hr:min        LPS
  --------------------------------------------------------------------------------------------------
  JK-storage               0.183      63     0     0         0.291     100       0  02:22     795.41
  CC-storage               3.269      21     0     0         3.916      25       0  03:25     400.00
  XR-storage               0.880      95     0     0         0.926     100       0  02:49     379.98
  
  
  ***********************
  Outfall Loading Summary
  ***********************
  
  -----------------------------------------------------------
                         Flow       Avg       Max       Total
                         Freq      Flow      Flow      Volume
  Outfall Node           Pcnt       LPS       LPS    10^6 ltr
  -----------------------------------------------------------
  WSC                  100.00    570.81   1035.72      13.970
  3                     83.28    213.19    545.15       3.448
  4                     28.74     63.06    240.35       0.345
  5                      0.00      0.00      0.00       0.000
  -----------------------------------------------------------
  System                53.00    847.06   1810.08      17.763
  
  
  ********************
  Link Flow Summary
  ********************
  
  -----------------------------------------------------------------------------
                                 Maximum  Time of Max   Maximum    Max/    Max/
                                  |Flow|   Occurrence   |Veloc|    Full    Full
  Link                 Type          LPS  days hr:min     m/sec    Flow   Depth
  -----------------------------------------------------------------------------
  WS02003066WSF200     CONDUIT    774.50     0  03:06      2.93    0.13    0.28
  WS02006287WS02006284 CONDUIT    610.95     0  03:02      2.31    0.28    0.37
  WS02006284WS02006280 CONDUIT    611.94     0  03:02      2.55    0.26    0.35
  WS02006280WS02006229 CONDUIT    612.06     0  03:02      4.12    0.13    0.24
  WS02006229WS02006228 CONDUIT    766.21     0  03:02      1.52    2.54    1.00
  WS02006256WS02006235 CONDUIT    150.00     0  00:25      2.14    1.59    1.00
  WS02006253WS02006251 CONDUIT    128.72     0  03:01      0.64    0.39    1.00
  WS02006252WS02006251 CONDUIT    400.67     0  05:40      3.19    1.47    1.00
  WS02006251WS02006249 CONDUIT    470.16     0  03:10      1.23    1.36    0.97
  WS02006249WS02006248 CONDUIT    337.37     0  06:50      1.09    1.85    0.93
  WS02006248WS02006247 CONDUIT    336.78     0  05:41      1.04    0.73    0.97
  WS02006247WS02006245 CONDUIT    336.83     0  05:41      0.99    2.67    1.00
  WS02006245WS02006243 CONDUIT    336.53     0  05:41      1.02    1.00    1.00
  WS02006243WS02006242 CONDUIT    336.31     0  07:21      0.94    0.72    1.00
  WS02006242WS02006240 CONDUIT    335.64     0  07:21      0.92    1.33    1.00
  WS02006240WS02006239 CONDUIT    335.27     0  07:21      0.96    1.06    1.00
  WS02006239WS02006238 CONDUIT    335.67     0  07:21      0.92    1.07    1.00
  WS02006238WS02006235 CONDUIT    335.07     0  07:21      0.91    0.75    1.00
  WS02006235WS02006234 CONDUIT    393.10     0  05:50      1.03    4.15    1.00
  WS02006234WS02006232 CONDUIT    392.96     0  05:50      1.02    0.79    1.00
  WS02006232WS02006231 CONDUIT    392.96     0  05:50      1.06    0.82    1.00
  WS02006231WS02006230 CONDUIT    392.64     0  05:50      1.32    5.96    1.00
  WS02006230WS02006229 CONDUIT    402.58     0  05:51      1.05    8.96    1.00
  WS02006228WS02006109 CONDUIT    766.04     0  03:02      1.52    3.35    1.00
  WS02006116WS02004401 CONDUIT    779.17     0  03:04      0.99    1.07    1.00
  WS02006115WS02006116 CONDUIT    779.39     0  03:04      0.99    1.00    1.00
  WS02006113WS02006111 CONDUIT    761.00     0  03:03      2.60    0.91    0.71
  WS02006112WS02006115 CONDUIT    778.36     0  03:04      0.99    0.46    1.00
  WS02006111WS02006112 CONDUIT    762.66     0  03:04      1.72    0.36    0.84
  WS02006110WS02006113 CONDUIT    767.18     0  03:02      1.67    0.70    0.86
  WS02006109WS02006110 CONDUIT    767.32     0  03:02      1.53    1.48    1.00
  WS02004411WS02004412 CONDUIT    773.92     0  03:05      1.12    1.10    0.82
  WS02004401WS02004402 CONDUIT    779.38     0  03:04      0.99    0.94    1.00
  WS02004413WS02003067 CONDUIT    773.93     0  03:06      1.36    0.33    0.68
  WS02004412WS02004413 CONDUIT    773.83     0  03:06      1.05    0.52    0.89
  WS02004410WS02004411 CONDUIT    774.58     0  03:05      1.11    1.06    0.83
  WS02004409WS02004410 CONDUIT    776.49     0  03:05      1.12    1.00    0.83
  WS02004407WS02004409 CONDUIT    779.22     0  03:04      1.61    0.28    0.59
  WS02004406WS02004407 CONDUIT    779.97     0  03:04      1.37    0.35    0.68
  WS02004405WS02004406 CONDUIT    779.62     0  03:04      0.99    1.54    1.00
  WS02004404WS02004405 CONDUIT    779.59     0  03:04      0.99    7.64    1.00
  WS02004403WS02004404 CONDUIT    779.44     0  03:04      0.99    0.56    1.00
  WS02004402WS02004403 CONDUIT    779.47     0  03:04      0.99    1.12    1.00
  WS02004139WS02001211 CONDUIT    373.64     0  03:50      0.81    0.47    0.58
  WS02004138WS02004139 CONDUIT    379.32     0  03:50      3.34    0.08    0.43
  WS02003067WS02003066 CONDUIT    774.33     0  03:06      1.48    0.25    0.47
  WS02001213WS02003059 CONDUIT    373.88     0  03:52      0.78    0.62    0.76
  WS02001212WS02001213 CONDUIT    374.73     0  03:51      1.28    0.58    0.45
  WS02001211WS02001212 CONDUIT    376.49     0  03:51      0.75    0.29    0.63
  WS02003072WS02003073 CONDUIT   1033.88     0  03:07      1.79    2.23    0.51
  WS02003069WS02003072 CONDUIT   1033.80     0  03:07      1.67    0.50    0.54
  WS02003060WS02003069 CONDUIT   1033.65     0  03:06      1.91    0.40    0.48
  WS02003059WS02003060 CONDUIT    373.46     0  03:52      0.90    0.24    0.67
  HS02004901HS02004770 CONDUIT     32.24     0  03:01      0.09    0.12    0.50
  HS02004876HS02004881 CONDUIT    119.32     0  03:01      1.17    1.27    0.15
  HS02004870HS02004876 CONDUIT     96.13     0  03:01      0.79    0.06    0.17
  HS02004842HS02004848 CONDUIT     15.11     0  03:01      0.07    0.01    0.33
  HS02004837HS02004842 CONDUIT     16.10     0  03:03      0.42    0.01    0.34
  HS02004830HS02004837 CONDUIT     61.24     0  03:01      0.66    0.06    0.13
  HS02004824HS02004830 CONDUIT     60.79     0  03:01      0.63    0.08    0.15
  HS02004817HS02004824 CONDUIT    117.39     0  03:02      0.30    0.05    0.56
  HS02004770HS02004777 CONDUIT    159.98     0  03:01      0.45    0.29    0.51
  HS02004799HS02004480 CONDUIT    387.38     0  03:01      1.00    0.49    0.56
  HS02004792HS02004799 CONDUIT    353.06     0  03:01      1.12    0.22    0.45
  HS02004788HS02004792 CONDUIT    202.13     0  03:02      1.22    0.13    0.24
  HS02004785HS02004788 CONDUIT    156.68     0  03:02      0.85    1.18    0.26
  HS02004777HS02004785 CONDUIT    157.13     0  03:01      0.53    0.19    0.42
  HS02004480HS02004478 CONDUIT    456.74     0  03:01      1.47    1.92    0.44
  HS02004479HS02004480 CONDUIT     74.07     0  03:02      0.22    0.07    0.53
  HS02004862HS02004870 CONDUIT     73.11     0  03:01      0.77    0.08    0.14
  HS02004848HS02004852 CONDUIT     35.11     0  03:01      0.52    0.04    0.10
  HS02004856HS02004862 CONDUIT     51.23     0  03:01      0.58    0.05    0.13
  HS02004852HS02004856 CONDUIT     35.03     0  03:02      0.32    0.04    0.16
  HS02004802HS02004478 CONDUIT    160.68     0  03:04      0.54    0.14    0.45
  HS02004478WS02006287 CONDUIT    609.82     0  03:02      2.03    0.17    0.33
  HS02004817HS02004807 CONDUIT    120.81     0  03:04      0.24    0.07    0.73
  HS02004807HS02004802 CONDUIT    156.91     0  03:03      0.45    0.30    0.51
  YS02001759YS02001757 CONDUIT    702.57     0  02:53      0.89    0.50    1.00
  YS02001762YS02001759 CONDUIT    351.81     0  02:51      0.45    0.41    1.00
  YS02001765YS02001762 CONDUIT    351.59     0  02:51      0.45    0.33    1.00
  YS02001770YS02001767 CONDUIT    351.38     0  02:51      0.45    1.39    1.00
  YS02001774YS02001770 CONDUIT    473.85     0  03:28      0.60    0.30    1.00
  YS02001779YS02001774 CONDUIT    474.18     0  03:28      0.60    0.24    1.00
  YS02001649YS02001757 CONDUIT    930.84     0  02:48      1.19    0.56    1.00
  YS02001767YS02001765 CONDUIT    351.92     0  02:51      0.45    0.44    1.00
  YS02006561YS02001783 CONDUIT    969.28     0  03:00      1.93    0.50    1.00
  YS02001783YS02001784 CONDUIT    969.16     0  03:00      1.93    1.34    1.00
  YS02001784YS02001785 CONDUIT    970.13     0  03:01      1.93    2.26    1.00
  YS02001788YS02001790 CONDUIT    970.30     0  03:00      1.93    0.72    1.00
  YS02001790YS02001791 CONDUIT    970.40     0  03:00      2.26    1.06    1.00
  YS02001791YS02001793 CONDUIT    970.54     0  03:00      4.35    0.42    1.00
  YS02001910YS02001907 CONDUIT    541.05     0  03:01      0.69    0.30    1.00
  YS02001786YS02001788 CONDUIT    970.18     0  03:00      1.93    1.87    1.00
  YS02001915YS02001910 CONDUIT    541.28     0  03:01      0.69    0.27    1.00
  YS02001918YS02001915 CONDUIT    270.99     0  02:52      0.44    0.15    1.00
  YS02001923YS02001920 CONDUIT    268.21     0  02:52      0.72    0.12    1.00
  YS02001926YS02001923 CONDUIT    257.07     0  02:53      0.82    0.37    0.95
  YS02001929YS02001926 CONDUIT    195.65     0  02:53      0.87    0.09    0.86
  YS02001920YS02001918 CONDUIT    270.83     0  02:52      0.70    0.26    1.00
  YS02001629YS02163301 CONDUIT    214.22     0  02:43      0.27    0.26    1.00
  YS02001619YS02001622 CONDUIT    337.86     0  03:00      0.60    0.50    1.00
  YS02001622YS02001625 CONDUIT    338.11     0  03:01      0.43    0.18    1.00
  YS02001625YS02001629 CONDUIT    206.69     0  02:47      0.26    0.10    1.00
  YS02163301YS02001633 CONDUIT    217.71     0  02:43      0.28    0.20    1.00
  YS02163601YS02164001 CONDUIT    433.56     0  02:47      0.55    0.38    1.00
  YS02164001YS02001641 CONDUIT    433.72     0  02:47      0.55    0.59    1.00
  YS02001641YS02001644 CONDUIT    433.49     0  02:47      0.55    1.40    1.00
  YS02001647YS02001649 CONDUIT    661.71     0  02:48      0.84    0.35    1.00
  YS02006553YS02006556 CONDUIT    671.98     0  03:32      0.86    0.57    1.00
  YS02006556YS02006558 CONDUIT    672.06     0  03:32      0.86    0.53    1.00
  YSB6556YSB1171       CONDUIT     41.33     0  03:02      0.13    0.04    0.80
  YS02001907YS02006553 CONDUIT    671.83     0  03:31      0.75    0.79    1.00
  YS02006558YS02006561 CONDUIT    969.09     0  03:00      3.43    2.14    1.00
  YS02001633YS02163601 CONDUIT    433.60     0  02:47      0.55    0.46    1.00
  YS02001644YS02001647 CONDUIT    661.94     0  02:48      0.84    0.39    1.00
  YS02001745YS02001748 CONDUIT    485.45     0  02:43      1.48    0.19    0.95
  YS02001748YS02001751 CONDUIT    425.56     0  02:35      1.03    0.21    1.00
  YS02001751YS02001754 CONDUIT    398.32     0  03:01      0.84    0.19    1.00
  YS02001754YS02001757 CONDUIT    398.34     0  03:01      0.51    0.16    1.00
  YS02001882YS02001884 CONDUIT     27.33     0  02:46      0.08    0.03    1.00
  YS02001884YS02001887 CONDUIT     37.07     0  02:45      0.05    0.05    1.00
  YS02001890YS02001895 CONDUIT    516.80     0  03:02      0.66    0.24    1.00
  YS02001895YS02001898 CONDUIT    516.82     0  03:03      0.66    0.90    1.00
  YS02001898YS02001901 CONDUIT    516.83     0  03:02      0.66    0.33    1.00
  YS02001901YS02001904 CONDUIT    516.83     0  03:04      0.66    0.80    1.00
  YS02001904YS02001907 CONDUIT    516.81     0  03:03      0.66    0.18    1.00
  YS02001887YS02001890 CONDUIT    622.90     0  03:01      0.79    1.07    1.00
  YS02001652YS02001649 CONDUIT    477.08     0  03:01      0.61    0.24    1.00
  YS02001655YS02001652 CONDUIT    476.89     0  03:01      0.89    0.23    1.00
  YS02001658YS02001655 CONDUIT    476.53     0  03:01      1.18    0.20    1.00
  YS02001661YS02001658 CONDUIT    630.34     0  02:39      1.55    0.25    1.00
  YS02001664YS02001661 CONDUIT    702.52     0  02:52      1.47    0.22    0.74
  YSB1154YSB6556       CONDUIT     41.76     0  03:01      0.19    0.08    0.69
  YSB1174YSB1171       CONDUIT     34.48     0  03:01      0.10    0.05    0.81
  YSB1171HS02004479    CONDUIT     72.19     0  03:02      0.54    0.05    0.65
  HS02004881HS02006253 CONDUIT    131.61     0  03:01      2.37    0.03    0.31
  YS02001793JiankangQianchi CONDUIT   1003.22     0  05:15     10.44    0.08    1.00
  YS02001757CaochengTiaoxuchi CONDUIT   1808.86     0  02:49      2.41    0.79    1.00
  WSF200WS02003060     CONDUIT    775.16     0  03:06      1.92    0.17    0.39
  1                    CONDUIT   1035.72     0  03:08      3.36    0.36    0.42
  2                    CONDUIT    240.35     0  03:10      6.11    0.58    0.54
  3                    CONDUIT    545.15     0  03:10      9.93    0.87    0.73
  4                    CONDUIT      0.00     0  00:00      0.00    0.00    0.00
  CC-Pump-1            PUMP       200.00     0  03:40              1.00
  CC-Pump-2            PUMP       200.00     0  03:00              1.00
  JK-Pump-1            PUMP       300.00     0  03:10              1.00
  JK-Pump-2            PUMP       300.00     0  00:30              1.00
  XR-Pump-1            PUMP        95.00     0  00:00              1.00
  XR-Pump-2            PUMP        95.00     0  00:50              1.00
  XR-Pump-3            PUMP        95.00     0  00:00              1.00
  XR-Pump-4            PUMP        95.00     0  00:00              1.00
  
  
  ***************************
  Flow Classification Summary
  ***************************
  
  -------------------------------------------------------------------------------------
                      Adjusted    ---------- Fraction of Time in Flow Class ---------- 
                       /Actual         Up    Down  Sub   Sup   Up    Down  Norm  Inlet 
  Conduit               Length    Dry  Dry   Dry   Crit  Crit  Crit  Crit  Ltd   Ctrl  
  -------------------------------------------------------------------------------------
  WS02003066WSF200        1.00   0.04  0.01  0.00  0.00  0.94  0.00  0.00  0.71  0.00
  WS02006287WS02006284    1.00   0.04  0.01  0.00  0.63  0.32  0.00  0.00  0.67  0.00
  WS02006284WS02006280    1.00   0.04  0.00  0.00  0.00  0.00  0.00  0.96  0.00  0.00
  WS02006280WS02006229    1.00   0.04  0.00  0.00  0.00  0.00  0.00  0.96  0.00  0.00
  WS02006229WS02006228    1.00   0.00  0.00  0.00  1.00  0.00  0.00  0.00  0.00  0.00
  WS02006256WS02006235    1.00   0.01  0.00  0.00  0.99  0.00  0.00  0.00  0.00  0.00
  WS02006253WS02006251    1.00   0.01  0.03  0.00  0.96  0.00  0.00  0.00  0.00  0.00
  WS02006252WS02006251    1.00   0.13  0.00  0.00  0.00  0.00  0.86  0.00  0.00  0.00
  WS02006251WS02006249    1.00   0.00  0.00  0.00  1.00  0.00  0.00  0.00  0.27  0.00
  WS02006249WS02006248    1.00   0.00  0.00  0.00  0.86  0.00  0.14  0.00  0.00  0.00
  WS02006248WS02006247    1.00   0.00  0.00  0.00  0.97  0.00  0.00  0.02  0.18  0.00
  WS02006247WS02006245    1.00   0.00  0.00  0.00  0.98  0.00  0.00  0.02  0.00  0.00
  WS02006245WS02006243    1.00   0.01  0.00  0.00  0.96  0.00  0.00  0.04  0.02  0.00
  WS02006243WS02006242    1.00   0.01  0.00  0.00  0.99  0.00  0.00  0.00  0.27  0.00
  WS02006242WS02006240    1.00   0.01  0.00  0.00  0.99  0.00  0.00  0.00  0.00  0.00
  WS02006240WS02006239    1.00   0.01  0.00  0.00  0.96  0.00  0.00  0.03  0.01  0.00
  WS02006239WS02006238    1.00   0.01  0.00  0.00  0.99  0.00  0.00  0.00  0.02  0.00
  WS02006238WS02006235    1.00   0.01  0.00  0.00  0.99  0.00  0.00  0.00  0.00  0.00
  WS02006235WS02006234    1.00   0.01  0.00  0.00  0.96  0.00  0.03  0.00  0.00  0.00
  WS02006234WS02006232    1.00   0.01  0.00  0.00  0.99  0.00  0.00  0.00  0.03  0.00
  WS02006232WS02006231    1.00   0.01  0.00  0.00  0.99  0.00  0.00  0.00  0.00  0.00
  WS02006231WS02006230    1.00   0.01  0.00  0.00  0.57  0.00  0.42  0.00  0.00  0.00
  WS02006230WS02006229    1.00   0.00  0.00  0.00  0.99  0.00  0.00  0.01  0.01  0.00
  WS02006228WS02006109    1.00   0.00  0.00  0.00  1.00  0.00  0.00  0.00  0.00  0.00
  WS02006116WS02004401    1.00   0.03  0.00  0.00  0.97  0.00  0.00  0.00  0.00  0.00
  WS02006115WS02006116    1.00   0.03  0.00  0.00  0.97  0.00  0.00  0.01  0.00  0.00
  WS02006113WS02006111    1.00   0.01  0.00  0.00  0.02  0.96  0.00  0.00  0.14  0.00
  WS02006112WS02006115    1.00   0.02  0.01  0.00  0.97  0.00  0.00  0.00  0.00  0.00
  WS02006111WS02006112    1.00   0.02  0.00  0.00  0.97  0.00  0.00  0.00  0.89  0.00
  WS02006110WS02006113    1.00   0.00  0.01  0.00  0.99  0.00  0.00  0.00  0.00  0.00
  WS02006109WS02006110    1.00   0.00  0.00  0.00  1.00  0.00  0.00  0.00  0.00  0.00
  WS02004411WS02004412    1.00   0.04  0.00  0.00  0.96  0.00  0.00  0.00  0.00  0.00
  WS02004401WS02004402    1.00   0.03  0.00  0.00  0.97  0.00  0.00  0.00  0.00  0.00
  WS02004413WS02003067    1.00   0.04  0.01  0.00  0.00  0.00  0.95  0.00  0.00  0.00
  WS02004412WS02004413    1.00   0.04  0.00  0.00  0.96  0.00  0.00  0.00  0.01  0.00
  WS02004410WS02004411    1.00   0.04  0.00  0.00  0.96  0.00  0.00  0.00  0.01  0.00
  WS02004409WS02004410    1.00   0.04  0.00  0.00  0.96  0.00  0.00  0.00  0.03  0.00
  WS02004407WS02004409    1.00   0.04  0.00  0.00  0.96  0.00  0.00  0.00  0.89  0.00
  WS02004406WS02004407    1.00   0.00  0.04  0.00  0.96  0.00  0.00  0.00  0.00  0.00
  WS02004405WS02004406    1.00   0.00  0.00  0.00  1.00  0.00  0.00  0.00  0.04  0.00
  WS02004404WS02004405    1.00   0.00  0.00  0.00  1.00  0.00  0.00  0.00  0.00  0.00
  WS02004403WS02004404    1.00   0.00  0.03  0.00  0.97  0.00  0.00  0.00  0.00  0.00
  WS02004402WS02004403    1.00   0.03  0.00  0.00  0.97  0.00  0.00  0.00  0.00  0.00
  WS02004139WS02001211    1.00   0.00  0.00  0.00  1.00  0.00  0.00  0.00  0.00  0.00
  WS02004138WS02004139    1.00   0.00  0.00  0.00  1.00  0.00  0.00  0.00  1.00  0.00
  WS02003067WS02003066    1.00   0.05  0.00  0.00  0.95  0.00  0.00  0.00  0.00  0.00
  WS02001213WS02003059    1.00   0.00  0.00  0.00  1.00  0.00  0.00  0.00  0.00  0.00
  WS02001212WS02001213    1.00   0.00  0.00  0.00  0.84  0.00  0.16  0.00  0.00  0.00
  WS02001211WS02001212    1.00   0.00  0.00  0.00  1.00  0.00  0.00  0.00  0.00  0.00
  WS02003072WS02003073    1.00   0.00  0.00  0.00  0.00  0.00  0.00  1.00  0.00  0.00
  WS02003069WS02003072    1.00   0.00  0.00  0.00  1.00  0.00  0.00  0.00  0.23  0.00
  WS02003060WS02003069    1.00   0.00  0.00  0.00  1.00  0.00  0.00  0.00  0.12  0.00
  WS02003059WS02003060    1.00   0.00  0.00  0.00  1.00  0.00  0.00  0.00  0.01  0.00
  HS02004901HS02004770    1.00   0.04  0.00  0.00  0.96  0.00  0.00  0.00  0.01  0.00
  HS02004876HS02004881    1.00   0.00  0.00  0.00  0.90  0.09  0.00  0.00  0.00  0.00
  HS02004870HS02004876    1.00   0.00  0.00  0.00  1.00  0.00  0.00  0.00  0.95  0.00
  HS02004842HS02004848    1.00   0.00  0.04  0.00  0.96  0.00  0.00  0.00  0.58  0.00
  HS02004837HS02004842    1.00   0.00  0.00  0.00  1.00  0.00  0.00  0.00  0.11  0.00
  HS02004830HS02004837    1.00   0.00  0.00  0.00  1.00  0.00  0.00  0.00  0.99  0.00
  HS02004824HS02004830    1.00   0.00  0.00  0.00  1.00  0.00  0.00  0.00  0.01  0.00
  HS02004817HS02004824    1.00   0.00  0.00  0.00  1.00  0.00  0.00  0.00  0.98  0.00
  HS02004770HS02004777    1.00   0.00  0.04  0.00  0.96  0.00  0.00  0.00  0.04  0.00
  HS02004799HS02004480    1.00   0.00  0.01  0.00  0.95  0.00  0.04  0.00  0.00  0.00
  HS02004792HS02004799    1.00   0.00  0.00  0.00  1.00  0.00  0.00  0.00  0.98  0.00
  HS02004788HS02004792    1.00   0.00  0.00  0.00  1.00  0.00  0.00  0.00  0.98  0.00
  HS02004785HS02004788    1.00   0.00  0.00  0.00  1.00  0.00  0.00  0.00  0.00  0.00
  HS02004777HS02004785    1.00   0.00  0.00  0.00  1.00  0.00  0.00  0.00  0.15  0.00
  HS02004480HS02004478    1.00   0.04  0.00  0.00  0.72  0.00  0.00  0.23  0.00  0.00
  HS02004479HS02004480    1.00   0.01  0.00  0.00  0.99  0.00  0.00  0.00  0.13  0.00
  HS02004862HS02004870    1.00   0.00  0.00  0.00  1.00  0.00  0.00  0.00  0.06  0.00
  HS02004848HS02004852    1.00   0.04  0.00  0.00  0.96  0.00  0.00  0.00  0.64  0.00
  HS02004856HS02004862    1.00   0.00  0.06  0.00  0.94  0.00  0.00  0.00  0.79  0.00
  HS02004852HS02004856    1.00   0.04  0.00  0.00  0.95  0.00  0.00  0.00  0.81  0.00
  HS02004802HS02004478    1.00   0.04  0.00  0.00  0.95  0.00  0.00  0.00  0.03  0.00
  HS02004478WS02006287    1.00   0.05  0.00  0.00  0.79  0.16  0.00  0.00  0.66  0.00
  HS02004817HS02004807    1.00   0.00  0.04  0.00  0.96  0.00  0.00  0.00  0.01  0.00
  HS02004807HS02004802    1.00   0.04  0.00  0.00  0.95  0.00  0.00  0.00  0.00  0.00
  YS02001759YS02001757    1.00   0.00  0.00  0.00  1.00  0.00  0.00  0.00  0.17  0.00
  YS02001762YS02001759    1.00   0.00  0.00  0.00  1.00  0.00  0.00  0.00  0.04  0.00
  YS02001765YS02001762    1.00   0.00  0.00  0.00  1.00  0.00  0.00  0.00  0.17  0.00
  YS02001770YS02001767    1.00   0.00  0.00  0.00  1.00  0.00  0.00  0.00  0.00  0.00
  YS02001774YS02001770    1.00   0.00  0.04  0.00  0.96  0.00  0.00  0.00  0.04  0.00
  YS02001779YS02001774    1.00   0.00  0.00  0.00  1.00  0.00  0.00  0.00  0.22  0.00
  YS02001649YS02001757    1.00   0.00  0.00  0.00  1.00  0.00  0.00  0.00  0.17  0.00
  YS02001767YS02001765    1.00   0.00  0.00  0.00  1.00  0.00  0.00  0.00  0.01  0.00
  YS02006561YS02001783    1.00   0.06  0.00  0.00  0.39  0.55  0.00  0.00  0.53  0.00
  YS02001783YS02001784    1.00   0.00  0.06  0.00  0.94  0.00  0.00  0.00  0.01  0.00
  YS02001784YS02001785    1.00   0.00  0.00  0.00  1.00  0.00  0.00  0.00  0.21  0.00
  YS02001788YS02001790    1.00   0.00  0.00  0.00  0.51  0.49  0.00  0.00  0.48  0.00
  YS02001790YS02001791    1.00   0.00  0.00  0.00  0.46  0.54  0.00  0.00  0.38  0.00
  YS02001791YS02001793    1.00   0.00  0.00  0.00  0.51  0.49  0.00  0.00  0.06  0.00
  YS02001910YS02001907    1.00   0.00  0.00  0.00  0.99  0.00  0.00  0.00  0.13  0.00
  YS02001786YS02001788    1.00   0.00  0.00  0.00  0.48  0.52  0.00  0.00  0.00  0.00
  YS02001915YS02001910    1.00   0.00  0.00  0.00  0.99  0.01  0.00  0.00  0.19  0.00
  YS02001918YS02001915    1.00   0.00  0.00  0.00  1.00  0.00  0.00  0.00  0.57  0.00
  YS02001923YS02001920    1.00   0.00  0.00  0.00  1.00  0.00  0.00  0.00  0.82  0.00
  YS02001926YS02001923    1.00   0.00  0.03  0.00  0.20  0.00  0.77  0.00  0.00  0.00
  YS02001929YS02001926    1.00   0.00  0.04  0.00  0.96  0.00  0.00  0.00  0.75  0.00
  YS02001920YS02001918    1.00   0.00  0.00  0.00  1.00  0.00  0.00  0.00  0.00  0.00
  YS02001629YS02163301    1.00   0.05  0.00  0.00  0.95  0.00  0.00  0.00  0.00  0.00
  YS02001619YS02001622    1.00   0.04  0.00  0.00  0.96  0.00  0.00  0.00  0.00  0.00
  YS02001622YS02001625    1.00   0.04  0.00  0.00  0.96  0.00  0.00  0.00  0.08  0.00
  YS02001625YS02001629    1.00   0.04  0.02  0.00  0.93  0.00  0.01  0.00  0.00  0.00
  YS02163301YS02001633    1.00   0.00  0.05  0.00  0.95  0.00  0.00  0.00  0.00  0.00
  YS02163601YS02164001    1.00   0.00  0.03  0.00  0.97  0.00  0.00  0.00  0.00  0.00
  YS02164001YS02001641    1.00   0.00  0.03  0.00  0.97  0.00  0.00  0.00  0.06  0.00
  YS02001641YS02001644    1.00   0.00  0.00  0.00  1.00  0.00  0.00  0.00  0.00  0.00
  YS02001647YS02001649    1.00   0.00  0.06  0.00  0.94  0.00  0.00  0.00  0.01  0.00
  YS02006553YS02006556    1.00   0.00  0.00  0.00  1.00  0.00  0.00  0.00  0.03  0.00
  YS02006556YS02006558    1.00   0.00  0.00  0.00  1.00  0.00  0.00  0.00  0.00  0.00
  YSB6556YSB1171          1.00   0.01  0.03  0.00  0.96  0.00  0.00  0.00  0.00  0.00
  YS02001907YS02006553    1.00   0.00  0.00  0.00  1.00  0.00  0.00  0.00  0.00  0.00
  YS02006558YS02006561    1.00   0.06  0.00  0.00  0.23  0.71  0.00  0.00  0.45  0.00
  YS02001633YS02163601    1.00   0.00  0.00  0.00  1.00  0.00  0.00  0.00  0.16  0.00
  YS02001644YS02001647    1.00   0.00  0.06  0.00  0.94  0.00  0.00  0.00  0.00  0.00
  YS02001745YS02001748    1.00   0.00  0.00  0.00  0.91  0.00  0.00  0.09  0.03  0.00
  YS02001748YS02001751    1.00   0.00  0.00  0.00  0.97  0.03  0.00  0.00  0.15  0.00
  YS02001751YS02001754    1.00   0.00  0.00  0.00  0.94  0.00  0.00  0.06  0.02  0.00
  YS02001754YS02001757    1.00   0.00  0.00  0.00  1.00  0.00  0.00  0.00  0.21  0.00
  YS02001882YS02001884    1.00   0.05  0.00  0.00  0.95  0.00  0.00  0.00  0.00  0.00
  YS02001884YS02001887    1.00   0.02  0.02  0.00  0.96  0.00  0.00  0.00  0.00  0.00
  YS02001890YS02001895    1.00   0.00  0.05  0.00  0.95  0.00  0.00  0.00  0.00  0.00
  YS02001895YS02001898    1.00   0.05  0.00  0.00  0.94  0.00  0.01  0.00  0.00  0.00
  YS02001898YS02001901    1.00   0.05  0.00  0.00  0.95  0.00  0.00  0.00  0.03  0.00
  YS02001901YS02001904    1.00   0.05  0.00  0.00  0.95  0.00  0.00  0.00  0.00  0.00
  YS02001904YS02001907    1.00   0.00  0.05  0.00  0.95  0.00  0.00  0.00  0.00  0.00
  YS02001887YS02001890    1.00   0.00  0.00  0.00  0.99  0.00  0.01  0.00  0.00  0.00
  YS02001652YS02001649    1.00   0.00  0.00  0.00  1.00  0.00  0.00  0.00  0.19  0.00
  YS02001655YS02001652    1.00   0.00  0.00  0.00  0.94  0.00  0.00  0.06  0.03  0.00
  YS02001658YS02001655    1.00   0.00  0.05  0.00  0.93  0.03  0.00  0.00  0.13  0.00
  YS02001661YS02001658    1.00   0.05  0.00  0.00  0.91  0.04  0.00  0.00  0.09  0.00
  YS02001664YS02001661    1.00   0.04  0.00  0.00  0.93  0.03  0.00  0.00  0.22  0.00
  YSB1154YSB6556          1.00   0.04  0.00  0.00  0.96  0.00  0.00  0.00  0.02  0.00
  YSB1174YSB1171          1.00   0.01  0.03  0.00  0.96  0.00  0.00  0.00  0.00  0.00
  YSB1171HS02004479       1.00   0.01  0.00  0.00  0.99  0.00  0.00  0.00  0.11  0.00
  HS02004881HS02006253    1.00   0.01  0.00  0.00  0.64  0.03  0.00  0.32  0.48  0.00
  YS02001793JiankangQianchi    1.00   0.00  0.00  0.00  0.85  0.15  0.00  0.00  0.33  0.00
  YS02001757CaochengTiaoxuchi    1.00   0.00  0.07  0.00  0.93  0.00  0.00  0.00  0.00  0.00
  WSF200WS02003060        1.00   0.00  0.04  0.00  0.52  0.43  0.00  0.00  0.29  0.00
  1                       1.00   0.00  0.00  0.00  0.00  1.00  0.00  0.00  0.38  0.00
  2                       1.00   0.71  0.00  0.00  0.00  0.29  0.00  0.00  0.07  0.00
  3                       1.00   0.17  0.00  0.00  0.00  0.83  0.00  0.00  0.35  0.00
  4                       1.00   1.00  0.00  0.00  0.00  0.00  0.00  0.00  0.00  0.00
  
  
  *************************
  Conduit Surcharge Summary
  *************************
  
  ----------------------------------------------------------------------------
                                                           Hours        Hours 
                         --------- Hours Full --------   Above Full   Capacity
  Conduit                Both Ends  Upstream  Dnstream   Normal Flow   Limited
  ----------------------------------------------------------------------------
  WS02006229WS02006228        1.45      1.68      1.45      4.15         1.45
  WS02006256WS02006235        5.37      5.38      7.18      2.96         0.01
  WS02006253WS02006251        0.01      0.01      0.10      0.01         0.01
  WS02006252WS02006251        0.69      0.69      1.63      1.39         0.01
  WS02006251WS02006249        0.01      0.04      0.01      0.81         0.01
  WS02006249WS02006248        0.01      0.01      0.01      3.33         0.01
  WS02006248WS02006247        0.01      0.01      0.15      0.01         0.01
  WS02006247WS02006245        0.15      0.18      0.15      3.85         0.14
  WS02006245WS02006243        0.16      0.16      0.22      0.01         0.01
  WS02006243WS02006242        0.23      0.23      0.75      0.01         0.01
  WS02006242WS02006240        0.32      0.32      1.08      1.46         0.01
  WS02006240WS02006239        0.40      0.40      0.50      0.16         0.01
  WS02006239WS02006238        1.02      1.02      1.12      0.19         0.01
  WS02006238WS02006235        1.02      1.02      1.34      0.01         0.01
  WS02006235WS02006234        0.38      0.38      0.85      5.28         0.01
  WS02006234WS02006232        0.50      0.50      1.48      0.01         0.01
  WS02006232WS02006231        0.35      0.35      1.48      0.01         0.01
  WS02006231WS02006230        0.32      0.32      0.36      5.30         0.01
  WS02006230WS02006229        2.61      3.72      2.61      5.74         2.60
  WS02006228WS02006109        1.57      2.15      1.57      5.05         1.57
  WS02006116WS02004401        0.18      0.18      0.19      0.13         0.13
  WS02006115WS02006116        0.08      0.08      0.08      0.01         0.02
  WS02006112WS02006115        0.06      0.06      0.58      0.01         0.01
  WS02006111WS02006112        0.01      0.01      4.21      0.01         0.01
  WS02006110WS02006113        0.01      0.01      1.87      0.01         0.01
  WS02006109WS02006110        0.51      0.51      2.15      0.51         0.01
  WS02004411WS02004412        0.01      0.01      0.01      0.16         0.01
  WS02004401WS02004402        0.19      0.19      0.21      0.01         0.01
  WS02004410WS02004411        0.01      0.01      0.01      0.12         0.01
  WS02004409WS02004410        0.01      0.01      0.01      0.03         0.01
  WS02004406WS02004407        0.01      0.01      0.30      0.01         0.01
  WS02004405WS02004406        0.30      0.33      0.30      0.55         0.30
  WS02004404WS02004405        0.33      0.36      0.33      5.89         0.33
  WS02004403WS02004404        0.22      0.22      0.36      0.01         0.01
  WS02004402WS02004403        0.21      0.21      0.22      0.17         0.17
  WS02003072WS02003073        0.01      0.01      0.01      4.60         0.01
  HS02004876HS02004881        0.01      0.01      0.01      0.17         0.01
  HS02004785HS02004788        0.01      0.01      0.01      0.10         0.01
  HS02004480HS02004478        0.01      0.01      0.01      0.52         0.01
  YS02001759YS02001757        5.54      5.54      5.62      0.01         0.01
  YS02001762YS02001759        5.52      5.52      5.54      0.01         0.01
  YS02001765YS02001762        5.50      5.50      5.52      0.01         0.01
  YS02001770YS02001767        5.47      5.47      5.47      0.24         0.69
  YS02001774YS02001770        5.46      5.46      5.51      0.01         0.01
  YS02001779YS02001774        5.36      5.36      5.51      0.01         0.01
  YS02001649YS02001757        5.52      5.52      5.62      0.01         0.01
  YS02001767YS02001765        5.47      5.47      5.50      0.01         0.01
  YS02006561YS02001783        0.92      0.92      1.64      0.01         0.01
  YS02001783YS02001784        1.64      1.64      1.69      1.27         1.28
  YS02001784YS02001785        1.64      1.69      1.64      2.21         1.64
  YS02001788YS02001790        1.63      1.63      2.48      0.01         0.01
  YS02001790YS02001791        2.48      2.48      2.64      0.76         0.76
  YS02001791YS02001793        2.64      2.64      2.94      0.01         0.01
  YS02001910YS02001907        1.24      1.24      1.67      0.01         0.01
  YS02001786YS02001788        1.63      1.64      1.63      1.83         1.62
  YS02001915YS02001910        1.03      1.03      1.24      0.01         0.01
  YS02001918YS02001915        0.79      0.79      1.03      0.01         0.01
  YS02001923YS02001920        0.63      0.63      0.83      0.01         0.01
  YS02001920YS02001918        0.79      0.79      0.83      0.01         0.01
  YS02001629YS02163301        5.46      5.46      5.46      0.01         0.01
  YS02001619YS02001622        5.20      5.20      5.24      0.01         0.01
  YS02001622YS02001625        5.24      5.24      5.43      0.01         0.01
  YS02001625YS02001629        5.21      5.21      5.43      0.01         0.01
  YS02163301YS02001633        5.46      5.46      5.49      0.01         0.01
  YS02163601YS02164001        5.49      5.49      5.53      0.01         0.01
  YS02164001YS02001641        5.49      5.49      5.50      0.01         0.03
  YS02001641YS02001644        5.50      5.50      5.50      1.47         1.53
  YS02001647YS02001649        5.42      5.42      5.52      0.01         0.01
  YS02006553YS02006556        1.44      1.44      1.73      0.01         0.01
  YS02006556YS02006558        1.56      1.56      1.80      0.01         0.01
  YS02001907YS02006553        2.24      2.24      2.45      0.01         0.01
  YS02006558YS02006561        1.13      1.41      1.13      2.08         1.13
  YS02001633YS02163601        5.49      5.49      5.53      0.01         0.01
  YS02001644YS02001647        5.42      5.42      5.50      0.01         0.01
  YS02001745YS02001748        0.01      0.01      5.07      0.01         0.01
  YS02001748YS02001751        5.11      5.11      5.21      0.01         0.01
  YS02001751YS02001754        5.21      5.21      5.38      0.01         0.01
  YS02001754YS02001757        5.41      5.41      5.62      0.01         0.01
  YS02001882YS02001884        1.05      1.05      1.07      0.01         0.01
  YS02001884YS02001887        1.13      1.13      1.16      0.01         0.01
  YS02001890YS02001895        1.02      1.02      1.25      0.01         0.01
  YS02001895YS02001898        1.00      1.00      1.02      0.01         0.01
  YS02001898YS02001901        1.03      1.03      1.13      0.01         0.01
  YS02001901YS02001904        1.10      1.10      1.13      0.01         0.01
  YS02001904YS02001907        1.10      1.10      1.76      0.01         0.01
  YS02001887YS02001890        1.19      1.19      1.22      0.07         0.01
  YS02001652YS02001649        5.43      5.43      5.52      0.01         0.01
  YS02001655YS02001652        5.22      5.22      5.41      0.01         0.01
  YS02001658YS02001655        5.10      5.10      5.22      0.01         0.01
  YS02001661YS02001658        0.24      0.24      5.10      0.01         0.01
  YS02001664YS02001661        0.01      0.01      1.23      0.01         0.01
  YS02001793JiankangQianchi        2.86      2.86      5.09      0.01         0.01
  YS02001757CaochengTiaoxuchi        4.93      4.93      5.62      0.01         0.01
  
  
  ***************
  Pumping Summary
  ***************
  
  ---------------------------------------------------------------------------------------------------------
                                                  Min       Avg       Max     Total     Power    % Time Off
                        Percent   Number of      Flow      Flow      Flow    Volume     Usage    Pump Curve
  Pump                 Utilized   Start-Ups       LPS       LPS       LPS  10^6 ltr     Kw-hr    Low   High
  ---------------------------------------------------------------------------------------------------------
  CC-Pump-1               53.19           7      0.00    122.92    200.00     1.860      1.68    0.0    0.0
  CC-Pump-2               44.68           4      0.00    143.08    200.00     1.800      1.79    0.0    0.0
  JK-Pump-1               55.32           6      0.00    177.62    300.00     2.213     17.13    0.0    0.0
  JK-Pump-2               74.46           5      0.00    186.47    300.00     3.049     26.80    0.0    0.0
  XR-Pump-1               82.98           9      0.00     71.96     95.00     1.739     14.18    0.0    0.0
  XR-Pump-2               80.84           7      0.00     64.61     95.00     1.567     13.63    0.0    0.0
  XR-Pump-3               87.23           8      0.00     62.00     95.00     1.567     12.56    0.0    0.0
  XR-Pump-4               61.70           8      0.00     61.81     95.00     1.112      7.61    0.0    0.0
  

  Analysis begun on:  Wed Dec 22 10:52:52 2021
  Analysis ended on:  Wed Dec 22 10:52:56 2021
  Total elapsed time: 00:00:04