
  EPA STORM WATER MANAGEMENT MODEL - VERSION 5.1 (Build 5.3.0.dev0)
  --------------------------------------------------------------

  WARNING 04: minimum elevation drop used for Conduit WS02004404WS02004405
  WARNING 03: negative offset ignored for Link YS02001904YS02001907
  
  *********************************************************
  NOTE: The summary statistics displayed in this report are
  based on results found at every computational time step,  
  not just on results from each reporting time step.
  *********************************************************
  
  ****************
  Analysis Options
  ****************
  Flow Units ............... LPS
  Process Models:
    Rainfall/Runoff ........ YES
    RDII ................... NO
    Snowmelt ............... NO
    Groundwater ............ NO
    Flow Routing ........... YES
    Ponding Allowed ........ NO
    Water Quality .......... NO
  Infiltration Method ...... HORTON
  Flow Routing Method ...... DYNWAVE
  Surcharge Method ......... EXTRAN
  Starting Date ............ 08/28/2015 08:00:00
  Ending Date .............. 08/28/2015 15:50:00
  Antecedent Dry Days ...... 8.0
  Report Time Step ......... 00:01:00
  Wet Time Step ............ 00:01:00
  Dry Time Step ............ 00:01:00
  Routing Time Step ........ 5.00 sec
  Variable Time Step ....... YES
  Maximum Trials ........... 8
  Number of Threads ........ 4
  Head Tolerance ........... 0.001500 m
  
  
  **************************        Volume         Depth
  Runoff Quantity Continuity     hectare-m            mm
  **************************     ---------       -------
  Total Precipitation ......         6.144        13.452
  Evaporation Loss .........         0.000         0.000
  Infiltration Loss ........         1.572         3.442
  Surface Runoff ...........         3.480         7.619
  Final Storage ............         1.093         2.393
  Continuity Error (%) .....        -0.016
  
  
  **************************        Volume        Volume
  Flow Routing Continuity        hectare-m      10^6 ltr
  **************************     ---------     ---------
  Dry Weather Inflow .......         0.616         6.165
  Wet Weather Inflow .......         3.479        34.786
  Groundwater Inflow .......         0.000         0.000
  RDII Inflow ..............         0.000         0.000
  External Inflow ..........         0.102         1.024
  External Outflow .........         1.732        17.319
  Flooding Loss ............         1.975        19.747
  Evaporation Loss .........         0.000         0.000
  Exfiltration Loss ........         0.000         0.000
  Initial Stored Volume ....         0.076         0.761
  Final Stored Volume ......         0.642         6.420
  Continuity Error (%) .....        -1.756
  
  
  *************************
  Highest Continuity Errors
  *************************
  Node HS02004842 (15.27%)
  Node YS02001884 (12.23%)
  Node JK-storage (-7.91%)
  Node YSB1171 (2.79%)
  Node HS02004817 (2.78%)
  
  
  ***************************
  Time-Step Critical Elements
  ***************************
  Link 3 (45.21%)
  Link WS02006252WS02006251 (39.55%)
  Link WS02006280WS02006229 (5.70%)
  Link WS02006238WS02006235 (3.44%)
  
  
  ********************************
  Highest Flow Instability Indexes
  ********************************
  Link YS02163601YS02164001 (44)
  Link YS02163301YS02001633 (43)
  Link YS02001629YS02163301 (43)
  Link YS02001619YS02001622 (43)
  Link WS02006113WS02006111 (43)
  
  
  *************************
  Routing Time Step Summary
  *************************
  Minimum Time Step           :     0.01 sec
  Average Time Step           :     0.89 sec
  Maximum Time Step           :     5.00 sec
  Percent in Steady State     :    -0.00
  Average Iterations per Step :     4.82
  Percent Not Converging      :    22.25
  
  
  ***************************
  Subcatchment Runoff Summary
  ***************************
  
  ------------------------------------------------------------------------------------------------------------------------------
                            Total      Total      Total      Total     Imperv       Perv      Total       Total     Peak  Runoff
                           Precip      Runon       Evap      Infil     Runoff     Runoff     Runoff      Runoff   Runoff   Coeff
  Subcatchment                 mm         mm         mm         mm         mm         mm         mm    10^6 ltr      LPS
  ------------------------------------------------------------------------------------------------------------------------------
  sub0                      13.45       0.00       0.00       0.89      11.25       0.05      11.30        0.01     3.67   0.840
  sub1                      13.45       0.00       0.00       1.45      10.71       0.03      10.74        0.07    24.31   0.799
  sub2                      13.45       0.00       0.00       4.95       7.56       0.02       7.58        0.07    22.93   0.564
  sub3                      13.45       0.00       0.00       4.96       7.52       0.02       7.54        0.17    51.30   0.560
  sub4                      13.45       0.00       0.00       1.46      10.54       0.02      10.56        0.22    61.94   0.785
  sub5                      13.45       0.00       0.00       0.91      11.19       0.03      11.22        0.13    43.21   0.834
  sub7                      13.45       0.00       0.00       1.17      10.98       0.04      11.03        0.04    13.69   0.820
  sub8                      13.45       0.00       0.00       1.17      10.97       0.04      11.01        0.07    25.15   0.819
  sub9                      13.45       0.00       0.00       1.17      10.97       0.04      11.01        0.05    18.81   0.818
  sub10                     13.45       0.00       0.00       1.04      11.08       0.03      11.11        0.12    42.29   0.826
  sub11                     13.45       0.00       0.00       1.04      11.10       0.04      11.14        0.13    46.68   0.828
  sub12                     13.45       0.00       0.00       1.69      10.51       0.06      10.58        0.09    35.94   0.786
  sub14                     13.45       0.00       0.00       1.17      10.97       0.04      11.01        0.10    37.02   0.818
  sub15                     13.45       0.00       0.00       4.00       8.43       0.04       8.47        0.15    51.03   0.630
  sub16                     13.45       0.00       0.00       4.38       8.09       0.06       8.15        0.09    32.58   0.606
  sub17                     13.45       0.00       0.00       4.25       8.21       0.06       8.27        0.07    26.73   0.615
  sub22                     13.45       0.00       0.00       5.74       6.88       0.04       6.92        0.44   159.06   0.514
  sub23                     13.45       0.00       0.00       4.93       7.60       0.05       7.65        0.36   133.95   0.569
  sub60                     13.45       0.00       0.00       1.61       8.73       0.00       8.74        2.65   387.96   0.649
  sub61                     13.45       0.00       0.00       2.28       8.88       0.00       8.88        2.74   483.52   0.660
  sub62                     13.45       0.00       0.00       1.07       9.65       0.00       9.66        2.97   496.42   0.718
  sub63                     13.45       0.00       0.00       3.90       7.77       0.00       7.77        2.35   446.68   0.578
  sub64                     13.45       0.00       0.00       2.01       8.38       0.00       8.38        2.55   368.35   0.623
  sub65                     13.45       0.00       0.00       1.75       8.52       0.00       8.52        2.62   373.60   0.634
  sub66                     13.45       0.00       0.00       3.90       7.19       0.00       7.19        2.21   337.96   0.535
  sub67                     13.45       0.00       0.00       1.07      10.19       0.01      10.19        3.15   622.58   0.758
  sub68                     13.45       0.00       0.00       1.88       9.34       0.01       9.34        2.87   531.38   0.694
  sub69                     13.45       0.00       0.00       2.01       9.68       0.01       9.69        2.26   503.32   0.720
  sub70                     13.45       9.89       0.00       7.67      12.93       0.26      13.20        3.02   423.72   0.565
  sub71                     13.45       0.00       0.00       1.07       9.40       0.00       9.40        2.22   347.35   0.699
  sub72                     13.45       0.00       0.00       0.94       7.49       0.00       7.50        1.53   163.23   0.557
  sub73                     13.45      12.84       0.00       8.67      14.26       0.27      14.53        3.41   375.92   0.552
  sub74                     13.45       0.00       0.00      10.09       2.88       0.00       2.89        1.15   273.25   0.215
  
  
  ******************
  Node Depth Summary
  ******************
  
  ---------------------------------------------------------------------------------
                                 Average  Maximum  Maximum  Time of Max    Reported
                                   Depth    Depth      HGL   Occurrence   Max Depth
  Node                 Type       Meters   Meters   Meters  days hr:min      Meters
  ---------------------------------------------------------------------------------
  WS02001211           JUNCTION     0.62     0.75     5.59     0  03:09        0.75
  WS02001212           JUNCTION     0.35     0.49     5.55     0  03:09        0.49
  WS02001213           JUNCTION     0.59     0.76     5.52     0  03:07        0.76
  WS02003069           JUNCTION     0.42     0.63     5.21     0  03:07        0.63
  WS02003072           JUNCTION     0.49     0.68     5.05     0  03:07        0.68
  WS02003073           JUNCTION     0.29     0.42     4.49     0  03:08        0.42
  WS02003060           JUNCTION     0.38     0.55     5.48     0  03:06        0.55
  WS02003066           JUNCTION     0.23     0.35     5.90     0  03:05        0.35
  WS02003059           JUNCTION     0.65     0.82     5.51     0  03:07        0.82
  WS02003067           JUNCTION     0.57     0.78     6.10     0  03:05        0.78
  WS02004401           JUNCTION     0.67     1.08     7.08     0  03:03        1.08
  WS02004402           JUNCTION     0.70     1.08     7.04     0  03:03        1.08
  WS02004403           JUNCTION     0.72     1.08     7.01     0  03:03        1.07
  WS02004404           JUNCTION     0.80     1.13     6.98     0  03:03        1.13
  WS02004406           JUNCTION     0.80     1.09     6.92     0  03:03        1.09
  WS02004409           JUNCTION     0.49     0.82     6.59     0  03:04        0.82
  WS02004410           JUNCTION     0.51     0.83     6.55     0  03:04        0.83
  WS02004411           JUNCTION     0.52     0.82     6.50     0  03:05        0.82
  WS02004412           JUNCTION     0.54     0.81     6.45     0  03:05        0.81
  WS02004413           JUNCTION     0.69     0.96     6.43     0  03:05        0.96
  WS02004405           JUNCTION     0.80     1.11     6.96     0  03:03        1.11
  WS02006109           JUNCTION     0.75     1.21     7.83     0  03:02        1.20
  WS02006110           JUNCTION     0.74     1.07     7.66     0  03:02        1.07
  WS02006111           JUNCTION     0.22     0.54     7.25     0  03:03        0.54
  WS02006112           JUNCTION     0.84     1.34     7.22     0  03:03        1.33
  WS02006113           JUNCTION     0.34     0.57     7.46     0  03:03        0.57
  WS02006115           JUNCTION     0.57     1.02     7.16     0  03:03        1.02
  WS02006116           JUNCTION     0.65     1.08     7.12     0  03:03        1.08
  WS02006230           JUNCTION     0.72     1.32     8.06     0  03:02        1.30
  WS02006231           JUNCTION     0.47     0.95     8.08     0  03:02        0.93
  WS02006232           JUNCTION     0.61     1.05     8.09     0  03:02        1.02
  WS02006234           JUNCTION     0.52     0.94     8.09     0  03:02        0.92
  WS02006235           JUNCTION     0.55     0.94     8.10     0  03:02        0.91
  WS02006238           JUNCTION     0.57     0.96     8.11     0  03:01        0.94
  WS02006240           JUNCTION     0.47     0.85     8.14     0  03:02        0.82
  WS02006242           JUNCTION     0.52     0.88     8.15     0  03:02        0.86
  WS02006243           JUNCTION     0.39     0.74     8.16     0  03:02        0.74
  WS02006245           JUNCTION     0.37     0.69     8.17     0  03:02        0.68
  WS02006247           JUNCTION     0.39     0.69     8.19     0  03:00        0.69
  WS02006248           JUNCTION     0.33     0.61     8.20     0  03:01        0.61
  WS02006249           JUNCTION     0.36     0.61     8.21     0  03:00        0.61
  WS02006239           JUNCTION     0.53     0.92     8.13     0  03:02        0.89
  WS02006251           JUNCTION     0.35     0.61     8.28     0  07:20        0.61
  WS02006252           JUNCTION     0.30     0.59     8.83     0  03:49        0.59
  WS02006253           JUNCTION     0.38     0.64     8.28     0  07:20        0.64
  WS02006256           JUNCTION     1.03     2.35     9.28     0  00:00        1.20
  WS02004138           JUNCTION     0.14     0.19     7.44     0  06:50        0.19
  WS02004407           JUNCTION     0.22     0.36     6.67     0  03:04        0.36
  WS02006228           JUNCTION     0.75     1.32     7.97     0  03:02        1.31
  WS02006229           JUNCTION     0.73     1.35     8.05     0  03:02        1.35
  WS02006280           JUNCTION     0.07     0.24     8.52     0  03:02        0.24
  WS02006284           JUNCTION     0.36     0.63     9.02     0  03:02        0.62
  WS02006287           JUNCTION     0.10     0.37     9.32     0  03:02        0.37
  WSF200               JUNCTION     0.22     0.39     5.62     0  03:05        0.39
  HS02004901           JUNCTION     0.12     0.35    10.17     0  03:01        0.35
  HS02004881           JUNCTION     0.01     0.05     9.08     0  03:01        0.05
  HS02004876           JUNCTION     0.04     0.15     9.18     0  03:01        0.15
  HS02004870           JUNCTION     0.02     0.09     9.37     0  03:01        0.09
  HS02004862           JUNCTION     0.02     0.10     9.49     0  03:01        0.10
  HS02004856           JUNCTION     0.08     0.15     9.57     0  03:01        0.15
  HS02004852           JUNCTION     0.01     0.07     9.58     0  03:02        0.07
  HS02004848           JUNCTION     0.01     0.06     9.67     0  03:01        0.06
  HS02004842           JUNCTION     0.33     0.40     9.67     0  03:01        0.40
  HS02004837           JUNCTION     0.03     0.09     9.67     0  03:01        0.09
  HS02004830           JUNCTION     0.04     0.10     9.57     0  03:01        0.10
  HS02004824           JUNCTION     0.02     0.11     9.51     0  03:02        0.11
  HS02004817           JUNCTION     0.44     0.67     9.52     0  03:02        0.67
  HS02004807           JUNCTION     0.13     0.34     9.51     0  03:02        0.34
  HS02004802           JUNCTION     0.16     0.38     9.50     0  03:02        0.38
  HS02004799           JUNCTION     0.12     0.43     9.65     0  03:01        0.43
  HS02004792           JUNCTION     0.03     0.20     9.72     0  03:01        0.19
  HS02004788           JUNCTION     0.03     0.14    10.04     0  03:02        0.14
  HS02004785           JUNCTION     0.04     0.23    10.13     0  03:02        0.23
  HS02004777           JUNCTION     0.15     0.37    10.17     0  03:01        0.37
  HS02004770           JUNCTION     0.11     0.34    10.17     0  03:01        0.34
  HS02004480           JUNCTION     0.08     0.35     9.59     0  03:01        0.35
  HS02004479           JUNCTION     0.11     0.39     9.60     0  03:01        0.39
  HS02004478           JUNCTION     0.06     0.26     9.48     0  03:01        0.26
  YS02001745           JUNCTION     0.75     0.90     8.42     0  03:20        0.90
  YS02001748           JUNCTION     1.15     1.52     8.59     0  02:45        1.34
  YS02001751           JUNCTION     1.33     1.59     8.47     0  02:44        1.53
  YS02001754           JUNCTION     1.58     1.83     8.44     0  03:19        1.81
  YS02001762           JUNCTION     1.78     2.15     8.55     0  07:50        2.15
  YS02001765           JUNCTION     1.74     2.10     8.55     0  07:50        2.10
  YS02001767           JUNCTION     1.70     2.03     8.52     0  07:50        2.03
  YS02001770           JUNCTION     1.70     1.95     8.44     0  07:50        1.95
  YS02001774           JUNCTION     1.76     2.05     8.47     0  07:50        2.05
  YS02001779           JUNCTION     1.51     1.68     8.37     0  02:49        1.68
  YS02001882           JUNCTION     0.58     1.63     8.35     0  02:50        1.62
  YS02001884           JUNCTION     0.67     1.74     8.35     0  03:00        1.73
  YS02001759           JUNCTION     1.82     2.15     8.51     0  07:50        2.15
  YS02001887           JUNCTION     0.75     1.81     8.35     0  03:00        1.80
  YS02001890           JUNCTION     0.78     1.81     8.32     0  02:50        1.81
  YS02001898           JUNCTION     0.55     1.57     8.30     0  02:50        1.56
  YS02001901           JUNCTION     0.67     1.68     8.29     0  02:51        1.67
  YS02001904           JUNCTION     0.64     1.64     8.27     0  02:51        1.63
  YS02001907           JUNCTION     0.97     1.96     8.25     0  02:50        1.96
  YS02001910           JUNCTION     0.76     1.79     8.30     0  02:52        1.78
  YS02001915           JUNCTION     0.56     1.61     8.32     0  02:52        1.59
  YS02001918           JUNCTION     0.31     1.30     8.36     0  02:52        1.29
  YS02001619           JUNCTION     1.29     1.49     8.42     0  02:42        1.48
  YS02001629           JUNCTION     1.65     1.85     8.39     0  02:43        1.84
  YS02001641           JUNCTION     1.75     1.93     8.37     0  02:59        1.93
  YS02001644           JUNCTION     1.75     1.92     8.35     0  02:47        1.92
  YS02001652           JUNCTION     1.60     2.16     8.76     0  02:55        1.94
  YS02001655           JUNCTION     1.36     2.20     9.05     0  02:55        1.77
  YS02001920           JUNCTION     0.41     1.38     8.39     0  02:52        1.36
  YS02001923           JUNCTION     0.25     1.14     8.40     0  02:52        1.13
  YS02001926           JUNCTION     0.29     0.98     8.42     0  02:52        0.97
  YS02001929           JUNCTION     0.17     0.75     8.45     0  02:52        0.72
  YS02001658           JUNCTION     1.09     2.28     9.42     0  02:55        1.54
  YS02001661           JUNCTION     0.86     2.36     9.77     0  02:55        1.31
  YS02001664           JUNCTION     0.38     0.57     8.50     0  03:47        0.56
  YS02001622           JUNCTION     1.32     1.51     8.42     0  02:42        1.50
  YS02001633           JUNCTION     1.74     1.95     8.40     0  02:54        1.94
  YS02001649           JUNCTION     1.79     2.05     8.44     0  02:51        2.05
  YS02001757           JUNCTION     1.92     2.18     8.44     0  03:21        2.18
  YS02001895           JUNCTION     0.54     1.57     8.31     0  03:07        1.56
  YS02001625           JUNCTION     1.60     1.78     8.38     0  02:42        1.78
  YS02163301           JUNCTION     1.68     1.88     8.40     0  03:00        1.88
  YS02163601           JUNCTION     1.79     1.99     8.39     0  02:49        1.98
  YS02164001           JUNCTION     1.73     1.92     8.38     0  03:00        1.91
  YS02001647           JUNCTION     1.58     1.81     8.42     0  03:04        1.79
  YSB1154              JUNCTION     0.25     0.54     9.60     0  03:01        0.54
  YSB6556              JUNCTION     0.15     0.43     9.60     0  03:02        0.43
  YSB1174              JUNCTION     0.21     0.49     9.60     0  03:01        0.49
  YSB1171              JUNCTION     0.41     0.69     9.60     0  03:01        0.69
  YS02006553           JUNCTION     0.97     1.97     8.25     0  03:01        1.97
  YS02006561           JUNCTION     0.34     1.10     7.76     0  02:50        1.09
  YS02006556           JUNCTION     0.94     1.93     8.24     0  02:59        1.93
  YS02006558           JUNCTION     0.98     1.97     8.24     0  03:00        1.96
  YS02001783           JUNCTION     0.59     1.49     7.63     0  02:50        1.47
  YS02001784           JUNCTION     0.61     1.43     7.50     0  02:50        1.41
  YS02001786           JUNCTION     0.56     1.28     7.31     0  02:50        1.26
  YS02001788           JUNCTION     0.51     1.14     7.12     0  02:50        1.13
  YS02001790           JUNCTION     0.66     1.37     7.01     0  02:21        1.29
  YS02001791           JUNCTION     0.68     1.29     6.76     0  02:21        1.27
  YS02001793           JUNCTION     0.97     1.81     6.64     0  02:50        1.80
  WS02004139           JUNCTION     0.56     0.69     5.60     0  03:09        0.69
  WSC                  OUTFALL      0.29     0.42     1.09     0  03:08        0.42
  3                    OUTFALL      0.10     0.23     6.23     0  00:00        0.20
  4                    OUTFALL      0.01     0.11     7.11     0  03:00        0.11
  5                    OUTFALL      0.00     0.00     5.00     0  00:00        0.00
  JK-storage           STORAGE      3.27     5.80     6.60     0  02:21        5.80
  CC-storage           STORAGE      1.18     1.40     8.40     0  03:20        1.40
  XR-storage           STORAGE      7.52     7.72     5.72     0  02:43        7.72
  
  
  *******************
  Node Inflow Summary
  *******************
  
  -------------------------------------------------------------------------------------------------
                                  Maximum  Maximum                  Lateral       Total        Flow
                                  Lateral    Total  Time of Max      Inflow      Inflow     Balance
                                   Inflow   Inflow   Occurrence      Volume      Volume       Error
  Node                 Type           LPS      LPS  days hr:min    10^6 ltr    10^6 ltr     Percent
  -------------------------------------------------------------------------------------------------
  WS02001211           JUNCTION      7.35   373.48     0  06:50       0.207           6       0.577
  WS02001212           JUNCTION      0.00   361.75     0  06:51           0        5.96       0.302
  WS02001213           JUNCTION      0.00   355.93     0  06:51           0        5.95       0.340
  WS02003069           JUNCTION      0.32  1063.05     0  03:07     0.00902        13.7       0.207
  WS02003072           JUNCTION      0.00  1062.99     0  03:07           0        13.7       0.256
  WS02003073           JUNCTION      1.82  1065.06     0  03:08      0.0514        13.7       0.289
  WS02003060           JUNCTION     16.53  1062.43     0  03:06       0.466        13.7       0.196
  WS02003066           JUNCTION      0.00   767.26     0  03:05           0        7.38       0.063
  WS02003059           JUNCTION      0.00   349.12     0  06:52           0        5.94       0.643
  WS02003067           JUNCTION      0.00   766.82     0  03:05           0        7.39       0.131
  WS02004401           JUNCTION      0.00   770.63     0  03:03           0        7.63       0.289
  WS02004402           JUNCTION      0.00   770.71     0  03:03           0        7.61       0.272
  WS02004403           JUNCTION      0.00   770.74     0  03:03           0        7.59       0.247
  WS02004404           JUNCTION      0.16   770.88     0  03:03     0.00457        7.58       0.184
  WS02004406           JUNCTION      0.00   770.90     0  03:04           0        7.54       0.450
  WS02004409           JUNCTION      0.00   770.73     0  03:04           0         7.5       0.229
  WS02004410           JUNCTION      0.00   769.00     0  03:04           0        7.48       0.258
  WS02004411           JUNCTION      0.00   767.74     0  03:04           0        7.46       0.264
  WS02004412           JUNCTION      0.00   766.97     0  03:05           0        7.44       0.284
  WS02004413           JUNCTION      0.00   766.77     0  03:05           0        7.42       0.419
  WS02004405           JUNCTION      0.04   770.90     0  03:04     0.00107        7.56       0.279
  WS02006109           JUNCTION      1.23   758.00     0  03:02      0.0347        7.69       0.287
  WS02006110           JUNCTION      0.00   757.98     0  03:02           0        7.67       0.262
  WS02006111           JUNCTION      0.00   753.25     0  03:03           0        7.64       0.061
  WS02006112           JUNCTION     26.73   769.30     0  03:03      0.0709         7.7       0.369
  WS02006113           JUNCTION      0.00   757.96     0  03:02           0        7.65       0.129
  WS02006115           JUNCTION      0.00   769.32     0  03:03           0        7.67       0.276
  WS02006116           JUNCTION      0.00   770.61     0  03:03           0        7.65       0.265
  WS02006230           JUNCTION     10.28   394.44     0  05:12        0.29         5.6       0.246
  WS02006231           JUNCTION      0.00   386.38     0  05:12           0        5.32       0.208
  WS02006232           JUNCTION      0.00   386.50     0  05:12           0        5.34       0.307
  WS02006234           JUNCTION      0.00   387.68     0  05:11           0        5.35       0.168
  WS02006235           JUNCTION      0.00   389.20     0  06:02           0         5.4       0.185
  WS02006238           JUNCTION      0.00   331.27     0  03:50           0        3.58       0.218
  WS02006240           JUNCTION      0.00   332.99     0  03:50           0        3.58       0.349
  WS02006242           JUNCTION      0.00   334.37     0  03:51           0        3.59       0.407
  WS02006243           JUNCTION      0.00   335.18     0  07:11           0        3.59      -0.033
  WS02006245           JUNCTION      0.00   341.70     0  07:11           0         3.6       0.296
  WS02006247           JUNCTION      0.00   347.87     0  07:11           0         3.6       0.176
  WS02006248           JUNCTION      0.00   353.51     0  07:10           0         3.6       0.075
  WS02006249           JUNCTION      0.00   401.67     0  03:50           0        3.82       0.325
  WS02006239           JUNCTION      0.00   332.32     0  03:50           0        3.58       0.306
  WS02006251           JUNCTION      0.08   403.67     0  03:50     0.00217        3.86       0.221
  WS02006252           JUNCTION      0.00   400.00     0  07:10           0        3.42       0.013
  WS02006253           JUNCTION      3.67   134.78     0  03:01     0.00915       0.438       0.859
  WS02006256           JUNCTION      0.00   600.00     0  00:00           0         5.3       0.037
  WS02004138           JUNCTION      0.00   379.95     0  06:50           0        5.81       0.030
  WS02004407           JUNCTION      0.00   770.98     0  03:04           0        7.51       0.102
  WS02006228           JUNCTION      0.00   756.82     0  03:02           0        7.67       0.204
  WS02006229           JUNCTION      0.00   758.62     0  03:02           0        7.68       0.172
  WS02006280           JUNCTION      0.00   611.99     0  03:02           0         2.1       0.003
  WS02006284           JUNCTION      0.10   611.09     0  03:02      0.0027         2.1       0.059
  WS02006287           JUNCTION      0.00   609.86     0  03:02           0         2.1       0.034
  WSF200               JUNCTION      0.00   767.40     0  03:05           0        7.38       0.064
  HS02004901           JUNCTION     32.58    32.58     0  03:01      0.0853      0.0856       2.107
  HS02004881           JUNCTION     13.69   131.69     0  03:01      0.0372       0.403       0.092
  HS02004876           JUNCTION     24.31   119.37     0  03:01      0.0714       0.367       0.153
  HS02004870           JUNCTION     25.15    96.63     0  03:01      0.0703       0.295       0.038
  HS02004862           JUNCTION     23.13    73.48     0  03:01      0.0763       0.225       0.079
  HS02004856           JUNCTION     18.81    51.88     0  03:01      0.0529        0.15       0.973
  HS02004852           JUNCTION      0.00    35.11     0  03:01           0      0.0975       0.061
  HS02004848           JUNCTION     51.30    51.30     0  03:01        0.17        0.17       0.030
  HS02004842           JUNCTION      0.00    15.11     0  03:01           0      0.0851      18.027
  HS02004837           JUNCTION     48.64    62.30     0  03:01       0.302       0.374       0.219
  HS02004830           JUNCTION      0.15    61.39     0  03:01     0.00423       0.364       0.340
  HS02004824           JUNCTION     61.99   121.76     0  03:01       0.222       0.584       0.093
  HS02004817           JUNCTION      0.60   117.99     0  03:02      0.0169       0.601       2.855
  HS02004807           JUNCTION     46.68   158.06     0  03:01       0.129       0.713       0.602
  HS02004802           JUNCTION      0.00   156.93     0  03:03           0       0.709       0.572
  HS02004799           JUNCTION     37.02   389.12     0  03:01       0.105        1.19       0.207
  HS02004792           JUNCTION    159.34   356.44     0  03:01       0.445        1.08       0.038
  HS02004788           JUNCTION     52.70   202.58     0  03:02       0.193       0.638       0.061
  HS02004785           JUNCTION      0.15   157.28     0  03:01     0.00423       0.447       0.111
  HS02004777           JUNCTION      0.03   160.02     0  03:01    0.000846       0.447       1.175
  HS02004770           JUNCTION    133.95   163.77     0  03:01       0.365       0.449       0.699
  HS02004480           JUNCTION      0.00   456.71     0  03:01           0         1.4       0.084
  HS02004479           JUNCTION      0.00    72.19     0  03:02           0       0.228       0.322
  HS02004478           JUNCTION      0.00   609.32     0  03:02           0         2.1       0.019
  YS02001745           JUNCTION    387.96   387.96     0  03:01        2.65        2.65       0.399
  YS02001748           JUNCTION      0.04   403.06     0  02:44     0.00127        2.64       0.885
  YS02001751           JUNCTION      0.01   399.49     0  03:01     0.00031        2.62       0.901
  YS02001754           JUNCTION      0.26   399.65     0  03:01     0.00733         2.6       0.962
  YS02001762           JUNCTION      0.00   358.58     0  02:52           0        1.76       1.216
  YS02001765           JUNCTION      0.00   358.81     0  02:52           0        1.76       1.394
  YS02001767           JUNCTION      0.54   358.45     0  02:52      0.0151        1.78       2.037
  YS02001770           JUNCTION    496.57   496.57     0  03:01        2.97        3.19       0.997
  YS02001774           JUNCTION      0.00   486.47     0  03:21           0        1.61       1.573
  YS02001779           JUNCTION      0.01   486.51     0  03:21    0.000141        1.59       0.980
  YS02001882           JUNCTION      0.00    29.68     0  02:46           0      0.0171      15.928
  YS02001884           JUNCTION      0.00    36.54     0  02:44           0      0.0521      13.937
  YS02001759           JUNCTION    483.56   715.01     0  02:53        2.74        4.25       0.543
  YS02001887           JUNCTION    623.03   623.54     0  03:01        3.16        3.19       0.275
  YS02001890           JUNCTION      0.00   623.44     0  03:01           0        3.14       0.301
  YS02001898           JUNCTION      0.00   517.20     0  03:07           0        3.09       0.114
  YS02001901           JUNCTION      0.00   517.12     0  03:05           0        3.08       0.231
  YS02001904           JUNCTION      0.00   516.97     0  03:00           0        3.08       0.211
  YS02001907           JUNCTION      0.00  1058.20     0  03:01           0        6.88       0.357
  YS02001910           JUNCTION      0.00   541.64     0  03:01           0        3.81       0.315
  YS02001915           JUNCTION    347.37   541.51     0  03:01        2.22        3.85       0.166
  YS02001918           JUNCTION      0.00   269.96     0  02:52           0        1.65       0.121
  YS02001619           JUNCTION    337.96   337.96     0  03:01         2.2         2.2       0.558
  YS02001629           JUNCTION      0.00   207.36     0  02:47           0        1.55       1.903
  YS02001641           JUNCTION      0.00   439.45     0  02:48           0        4.07       0.520
  YS02001644           JUNCTION    368.39  1239.46     0  03:20        2.55        9.81       0.267
  YS02001652           JUNCTION      0.00   480.01     0  03:01           0         2.3       1.023
  YS02001655           JUNCTION      0.15   479.74     0  03:01     0.00434        2.33       1.085
  YS02001920           JUNCTION      2.87   269.90     0  02:52      0.0809        1.64       0.190
  YS02001923           JUNCTION      0.04   257.71     0  02:53     0.00106        1.54       0.052
  YS02001926           JUNCTION      0.05   195.67     0  02:53     0.00147        1.53       0.222
  YS02001929           JUNCTION    163.23   163.23     0  03:01        1.53        1.53       0.038
  YS02001658           JUNCTION      0.00   579.08     0  02:40           0        2.35       0.930
  YS02001661           JUNCTION      0.00   711.15     0  02:53           0        3.04      -0.018
  YS02001664           JUNCTION    446.68   446.68     0  03:01        2.35        3.04       0.188
  YS02001622           JUNCTION      0.00   338.14     0  03:01           0        2.19       1.472
  YS02001633           JUNCTION    373.80   439.60     0  02:48        2.63        4.13       0.783
  YS02001649           JUNCTION      0.00   940.35     0  02:48           0        5.66       0.659
  YS02001757           JUNCTION      0.00  1820.44     0  02:49           0        9.06       1.030
  YS02001895           JUNCTION      0.00   516.98     0  03:08           0        3.09       0.165
  YS02001625           JUNCTION      0.00   338.17     0  03:01           0        2.16       1.820
  YS02163301           JUNCTION      0.00   208.93     0  02:42           0        1.53       1.596
  YS02163601           JUNCTION      0.11   439.44     0  02:48      0.0031         4.1       0.737
  YS02164001           JUNCTION      0.00   439.42     0  02:48           0        4.08       0.497
  YS02001647           JUNCTION      0.00   668.77     0  02:48           0        4.82       0.592
  YSB1154              JUNCTION     43.21    43.21     0  03:01       0.127       0.128       1.144
  YSB6556              JUNCTION      0.00    41.77     0  03:01           0       0.129       0.980
  YSB1174              JUNCTION     35.94    35.94     0  03:01      0.0924      0.0931       1.402
  YSB1171              JUNCTION      0.00    73.33     0  03:01           0       0.227       2.865
  YS02006553           JUNCTION      0.00   671.85     0  03:32           0        6.12       0.257
  YS02006561           JUNCTION      0.00   969.08     0  03:00           0        8.97       0.007
  YS02006556           JUNCTION      0.00   671.75     0  03:32           0        6.12       0.188
  YS02006558           JUNCTION    532.26   969.52     0  03:00         2.9           9       0.061
  YS02001783           JUNCTION      0.00   968.99     0  03:00           0        8.97       0.029
  YS02001784           JUNCTION      1.06   970.14     0  03:01      0.0299        8.99       0.042
  YS02001786           JUNCTION      0.06   970.18     0  03:01     0.00159        8.99       0.041
  YS02001788           JUNCTION      0.07   970.21     0  03:00       0.002        8.99       0.025
  YS02001790           JUNCTION      0.15   970.52     0  03:01     0.00437        8.99       0.028
  YS02001791           JUNCTION      0.00   970.36     0  03:01           0        8.99       0.016
  YS02001793           JUNCTION      0.00   970.60     0  03:00           0        8.99      -0.010
  WS02004139           JUNCTION      0.32   378.83     0  06:50     0.00905        5.82       0.490
  WSC                  OUTFALL       0.00  1065.39     0  03:08           0        13.7       0.000
  3                    OUTFALL       0.00   597.65     0  00:00           0        3.46       0.000
  4                    OUTFALL       0.00   114.91     0  03:00           0       0.204       0.000
  5                    OUTFALL       0.00     0.00     0  00:00           0           0       0.000 ltr
  JK-storage           STORAGE       0.00   970.58     0  03:01           0        9.14      -7.330
  CC-storage           STORAGE       0.00  1820.65     0  02:49           0        7.17       0.887
  XR-storage           STORAGE     849.17   849.17     0  03:01        10.2        10.8      -0.000
  
  
  **********************
  Node Surcharge Summary
  **********************
  
  Surcharging occurs when water rises above the top of the highest conduit.
  ---------------------------------------------------------------------
                                               Max. Height   Min. Depth
                                   Hours       Above Crown    Below Rim
  Node                 Type      Surcharged         Meters       Meters
  ---------------------------------------------------------------------
  WS02004401           JUNCTION        0.22          0.078        1.582
  WS02004402           JUNCTION        0.24          0.083        1.657
  WS02004403           JUNCTION        0.25          0.076        1.954
  WS02004404           JUNCTION        0.36          0.131        2.649
  WS02004406           JUNCTION        0.32          0.087        2.363
  WS02004405           JUNCTION        0.34          0.114        2.686
  WS02006109           JUNCTION        1.81          0.392        1.428
  WS02006110           JUNCTION        0.45          0.164        1.686
  WS02006112           JUNCTION        0.54          0.341        1.339
  WS02006115           JUNCTION        0.04          0.012        2.238
  WS02006116           JUNCTION        0.07          0.023        2.267
  WS02006230           JUNCTION        0.33          0.238        1.332
  WS02006231           JUNCTION        0.34          0.245        1.285
  WS02006232           JUNCTION        1.68          0.346        1.134
  WS02006234           JUNCTION        0.33          0.217        1.023
  WS02006235           JUNCTION        0.64          0.227        1.063
  WS02006238           JUNCTION        1.03          0.245        1.185
  WS02006240           JUNCTION        0.28          0.139        1.251
  WS02006242           JUNCTION        0.57          0.148        0.672
  WS02006243           JUNCTION        0.06          0.026        0.744
  WS02006239           JUNCTION        0.31          0.179        1.111
  WS02006252           JUNCTION        1.19          0.192        0.908
  WS02006256           JUNCTION        0.01          1.050        0.000
  WS02006228           JUNCTION        1.61          0.492        1.708
  YS02001748           JUNCTION        5.07          0.437        0.753
  YS02001751           JUNCTION        5.21          0.588        0.612
  YS02001754           JUNCTION        5.38          0.779        0.371
  YS02001762           JUNCTION        5.52          1.150        0.000
  YS02001765           JUNCTION        5.49          1.100        0.000
  YS02001767           JUNCTION        5.47          1.030        0.000
  YS02001770           JUNCTION        5.46          0.920        0.000
  YS02001774           JUNCTION        5.51          1.050        0.000
  YS02001779           JUNCTION        5.36          0.680        0.000
  YS02001882           JUNCTION        1.04          0.634        0.196
  YS02001884           JUNCTION        1.08          0.675        0.195
  YS02001759           JUNCTION        5.54          1.150        0.060
  YS02001887           JUNCTION        1.16          0.760        0.190
  YS02001890           JUNCTION        1.19          0.760        0.000
  YS02001898           JUNCTION        1.00          0.536        0.204
  YS02001901           JUNCTION        1.13          0.681        0.189
  YS02001904           JUNCTION        1.11          0.641        0.209
  YS02001907           JUNCTION        1.69          0.950        0.000
  YS02001910           JUNCTION        1.24          0.789        0.311
  YS02001915           JUNCTION        1.03          0.607        0.393
  YS02001918           JUNCTION        0.79          0.296        0.514
  YS02001619           JUNCTION        5.21          0.495        0.115
  YS02001629           JUNCTION        5.22          0.466        0.004
  YS02001641           JUNCTION        5.50          0.935        0.165
  YS02001644           JUNCTION        5.50          0.920        0.000
  YS02001652           JUNCTION        5.41          1.130        0.000
  YS02001655           JUNCTION        5.23          1.200        0.000
  YS02001920           JUNCTION        0.83          0.381        0.759
  YS02001658           JUNCTION        5.10          1.283        0.017
  YS02001661           JUNCTION        0.28          1.293        0.097
  YS02001622           JUNCTION        5.23          0.511        0.109
  YS02001633           JUNCTION        5.49          0.927        0.133
  YS02001649           JUNCTION        5.52          1.050        0.000
  YS02001757           JUNCTION        5.62          1.182        0.028
  YS02001895           JUNCTION        1.02          0.567        0.183
  YS02001625           JUNCTION        5.43          0.780        0.000
  YS02163301           JUNCTION        5.46          0.884        0.146
  YS02163601           JUNCTION        5.53          0.991        0.089
  YS02164001           JUNCTION        5.49          0.917        0.183
  YS02001647           JUNCTION        5.42          0.808        0.092
  YS02006553           JUNCTION        1.76          0.969        0.221
  YS02006561           JUNCTION        0.92          0.297        0.853
  YS02006556           JUNCTION        1.45          0.891        0.459
  YS02006558           JUNCTION        1.41          0.872        0.528
  YS02001783           JUNCTION        1.62          0.691        0.909
  YS02001784           JUNCTION        1.70          0.633        0.857
  YS02001786           JUNCTION        1.62          0.478        0.952
  YS02001788           JUNCTION        1.61          0.343        1.137
  YS02001790           JUNCTION        3.06          0.566        0.591
  YS02001791           JUNCTION        3.23          0.488        1.432
  YS02001793           JUNCTION        3.32          0.810        1.790
  
  
  *********************
  Node Flooding Summary
  *********************
  
  Flooding refers to all water that overflows a node, whether it ponds or not.
  --------------------------------------------------------------------------
                                                             Total   Maximum
                                 Maximum   Time of Max       Flood    Ponded
                        Hours       Rate    Occurrence      Volume     Depth
  Node                 Flooded       LPS   days hr:min    10^6 ltr    Meters
  --------------------------------------------------------------------------
  WS02006256              0.01    406.11      0  00:00       0.001     0.000
  YS02001762              0.01      0.30      0  07:50       0.000     0.000
  YS02001765              0.01      0.24      0  07:50       0.000     0.000
  YS02001767              0.01      0.18      0  07:50       0.000     0.000
  YS02001770              0.01      0.31      0  07:50       0.000     0.000
  YS02001774              0.01      0.08      0  07:50       0.000     0.000
  YS02001779              3.02    486.48      0  03:21       1.568     0.000
  YS02001890              0.23    106.60      0  03:01       0.038     0.000
  YS02001907              0.66    618.69      0  03:01       0.745     0.000
  YS02001644              4.21   1239.40      0  03:20       8.167     0.000
  YS02001652              0.01      9.89      0  02:55       0.000     0.000
  YS02001655              0.01      9.23      0  02:55       0.000     0.000
  YS02001649              0.08     48.63      0  02:55       0.003     0.000
  YS02001625              1.17    318.17      0  03:01       0.570     0.000
  JK-storage              2.61    970.42      0  03:01       4.589     0.000
  XR-storage              4.43    591.82      0  03:20       4.067     0.000
  
  
  **********************
  Storage Volume Summary
  **********************
  
  --------------------------------------------------------------------------------------------------
                         Average     Avg  Evap Exfil       Maximum     Max    Time of Max    Maximum
                          Volume    Pcnt  Pcnt  Pcnt        Volume    Pcnt     Occurrence    Outflow
  Storage Unit           1000 m3    Full  Loss  Loss       1000 m3    Full    days hr:min        LPS
  --------------------------------------------------------------------------------------------------
  JK-storage               0.164      56     0     0         0.291     100       0  02:21     600.00
  CC-storage               3.275      21     0     0         3.899      25       0  03:20     400.00
  XR-storage               0.903      97     0     0         0.926     100       0  02:43     379.95
  
  
  ***********************
  Outfall Loading Summary
  ***********************
  
  -----------------------------------------------------------
                         Flow       Avg       Max       Total
                         Freq      Flow      Flow      Volume
  Outfall Node           Pcnt       LPS       LPS    10^6 ltr
  -----------------------------------------------------------
  WSC                   99.99    550.07   1065.39      13.659
  3                     86.06    208.17    597.65       3.456
  4                     23.14     39.28    114.91       0.204
  5                      0.00      0.00      0.00       0.000
  -----------------------------------------------------------
  System                52.30    797.51   1220.29      17.319
  
  
  ********************
  Link Flow Summary
  ********************
  
  -----------------------------------------------------------------------------
                                 Maximum  Time of Max   Maximum    Max/    Max/
                                  |Flow|   Occurrence   |Veloc|    Full    Full
  Link                 Type          LPS  days hr:min     m/sec    Flow   Depth
  -----------------------------------------------------------------------------
  WS02003066WSF200     CONDUIT    767.40     0  03:05      2.92    0.13    0.28
  WS02006287WS02006284 CONDUIT    610.99     0  03:02      2.31    0.28    0.37
  WS02006284WS02006280 CONDUIT    611.99     0  03:02      2.55    0.26    0.35
  WS02006280WS02006229 CONDUIT    612.11     0  03:02      4.12    0.13    0.24
  WS02006229WS02006228 CONDUIT    756.82     0  03:02      1.51    2.51    1.00
  WS02006256WS02006235 CONDUIT    177.52     0  00:01      2.73    1.88    1.00
  WS02006253WS02006251 CONDUIT    138.51     0  03:01      0.59    0.42    0.89
  WS02006252WS02006251 CONDUIT    400.45     0  07:18      3.19    1.47    1.00
  WS02006251WS02006249 CONDUIT    401.67     0  03:50      1.17    1.16    0.86
  WS02006249WS02006248 CONDUIT    353.51     0  07:10      1.16    1.94    0.86
  WS02006248WS02006247 CONDUIT    347.87     0  07:11      1.12    0.76    0.92
  WS02006247WS02006245 CONDUIT    341.70     0  07:11      1.08    2.71    0.97
  WS02006245WS02006243 CONDUIT    335.18     0  07:11      1.09    0.99    0.99
  WS02006243WS02006242 CONDUIT    334.37     0  03:51      0.95    0.71    1.00
  WS02006242WS02006240 CONDUIT    332.99     0  03:50      0.89    1.32    1.00
  WS02006240WS02006239 CONDUIT    332.32     0  03:50      0.93    1.05    1.00
  WS02006239WS02006238 CONDUIT    331.27     0  03:50      0.88    1.06    1.00
  WS02006238WS02006235 CONDUIT    330.22     0  03:50      1.32    0.74    1.00
  WS02006235WS02006234 CONDUIT    387.68     0  05:11      1.04    4.09    1.00
  WS02006234WS02006232 CONDUIT    386.50     0  05:12      1.17    0.78    1.00
  WS02006232WS02006231 CONDUIT    386.38     0  05:12      1.06    0.81    1.00
  WS02006231WS02006230 CONDUIT    384.17     0  05:12      1.36    5.83    1.00
  WS02006230WS02006229 CONDUIT    393.83     0  05:13      1.02    8.76    1.00
  WS02006228WS02006109 CONDUIT    756.77     0  03:02      1.51    3.31    1.00
  WS02006116WS02004401 CONDUIT    770.63     0  03:03      0.98    1.06    1.00
  WS02006115WS02006116 CONDUIT    770.61     0  03:03      0.98    0.99    1.00
  WS02006113WS02006111 CONDUIT    753.25     0  03:03      2.62    0.90    0.70
  WS02006112WS02006115 CONDUIT    769.32     0  03:03      0.98    0.45    1.00
  WS02006111WS02006112 CONDUIT    752.42     0  03:04      1.73    0.36    0.83
  WS02006110WS02006113 CONDUIT    757.96     0  03:02      1.66    0.69    0.86
  WS02006109WS02006110 CONDUIT    757.98     0  03:02      1.51    1.46    1.00
  WS02004411WS02004412 CONDUIT    766.97     0  03:05      1.11    1.09    0.82
  WS02004401WS02004402 CONDUIT    770.71     0  03:03      0.98    0.93    1.00
  WS02004413WS02003067 CONDUIT    766.82     0  03:05      1.36    0.33    0.68
  WS02004412WS02004413 CONDUIT    766.77     0  03:05      1.04    0.51    0.89
  WS02004410WS02004411 CONDUIT    767.74     0  03:04      1.11    1.05    0.83
  WS02004409WS02004410 CONDUIT    769.00     0  03:04      1.11    0.99    0.83
  WS02004407WS02004409 CONDUIT    770.73     0  03:04      1.60    0.27    0.59
  WS02004406WS02004407 CONDUIT    770.98     0  03:04      1.36    0.34    0.68
  WS02004405WS02004406 CONDUIT    770.90     0  03:04      0.98    1.52    1.00
  WS02004404WS02004405 CONDUIT    770.86     0  03:04      0.98    7.55    1.00
  WS02004403WS02004404 CONDUIT    770.72     0  03:03      0.98    0.56    1.00
  WS02004402WS02004403 CONDUIT    770.74     0  03:03      0.98    1.11    1.00
  WS02004139WS02001211 CONDUIT    366.13     0  06:50      0.57    0.46    0.56
  WS02004138WS02004139 CONDUIT    378.51     0  06:50      1.25    0.08    0.41
  WS02003067WS02003066 CONDUIT    767.26     0  03:05      1.47    0.25    0.47
  WS02001213WS02003059 CONDUIT    349.12     0  06:52      0.59    0.58    0.78
  WS02001212WS02001213 CONDUIT    355.93     0  06:51      1.21    0.55    0.46
  WS02001211WS02001212 CONDUIT    361.75     0  06:51      0.74    0.28    0.62
  WS02003072WS02003073 CONDUIT   1063.24     0  03:08      1.81    2.30    0.52
  WS02003069WS02003072 CONDUIT   1062.99     0  03:07      1.69    0.51    0.54
  WS02003060WS02003069 CONDUIT   1062.73     0  03:07      1.92    0.42    0.49
  WS02003059WS02003060 CONDUIT    346.48     0  06:22      0.82    0.23    0.69
  HS02004901HS02004770 CONDUIT     32.25     0  03:01      0.09    0.12    0.50
  HS02004876HS02004881 CONDUIT    119.33     0  03:01      1.17    1.27    0.15
  HS02004870HS02004876 CONDUIT     96.14     0  03:01      0.79    0.06    0.17
  HS02004842HS02004848 CONDUIT     15.11     0  03:01      0.07    0.01    0.33
  HS02004837HS02004842 CONDUIT     16.10     0  03:03      0.41    0.01    0.34
  HS02004830HS02004837 CONDUIT     61.24     0  03:01      0.66    0.06    0.13
  HS02004824HS02004830 CONDUIT     60.79     0  03:01      0.63    0.08    0.15
  HS02004817HS02004824 CONDUIT    117.39     0  03:02      0.30    0.05    0.56
  HS02004770HS02004777 CONDUIT    159.99     0  03:01      0.45    0.29    0.51
  HS02004799HS02004480 CONDUIT    387.40     0  03:01      1.00    0.49    0.56
  HS02004792HS02004799 CONDUIT    353.08     0  03:01      1.12    0.22    0.45
  HS02004788HS02004792 CONDUIT    202.15     0  03:02      1.22    0.13    0.24
  HS02004785HS02004788 CONDUIT    156.69     0  03:02      0.85    1.18    0.26
  HS02004777HS02004785 CONDUIT    157.13     0  03:01      0.53    0.19    0.42
  HS02004480HS02004478 CONDUIT    456.77     0  03:01      1.47    1.92    0.44
  HS02004479HS02004480 CONDUIT     74.07     0  03:02      0.22    0.07    0.53
  HS02004862HS02004870 CONDUIT     73.11     0  03:01      0.77    0.08    0.14
  HS02004848HS02004852 CONDUIT     35.11     0  03:01      0.52    0.04    0.10
  HS02004856HS02004862 CONDUIT     51.23     0  03:01      0.58    0.05    0.13
  HS02004852HS02004856 CONDUIT     35.03     0  03:02      0.32    0.04    0.16
  HS02004802HS02004478 CONDUIT    160.69     0  03:04      0.54    0.14    0.45
  HS02004478WS02006287 CONDUIT    609.86     0  03:02      2.03    0.17    0.33
  HS02004817HS02004807 CONDUIT    120.82     0  03:04      0.24    0.07    0.73
  HS02004807HS02004802 CONDUIT    156.93     0  03:03      0.45    0.30    0.51
  YS02001759YS02001757 CONDUIT    714.84     0  02:53      0.91    0.51    1.00
  YS02001762YS02001759 CONDUIT    358.65     0  02:52      0.46    0.41    1.00
  YS02001765YS02001762 CONDUIT    358.58     0  02:52      0.46    0.34    1.00
  YS02001770YS02001767 CONDUIT    357.92     0  02:52      0.46    1.42    1.00
  YS02001774YS02001770 CONDUIT    486.47     0  03:21      0.62    0.31    1.00
  YS02001779YS02001774 CONDUIT    486.50     0  03:21      0.62    0.25    1.00
  YS02001649YS02001757 CONDUIT    940.68     0  02:49      1.20    0.57    1.00
  YS02001767YS02001765 CONDUIT    358.81     0  02:52      0.46    0.45    1.00
  YS02006561YS02001783 CONDUIT    968.99     0  03:00      1.93    0.50    1.00
  YS02001783YS02001784 CONDUIT    969.08     0  03:01      1.93    1.34    1.00
  YS02001784YS02001785 CONDUIT    970.13     0  03:01      1.93    2.26    1.00
  YS02001788YS02001790 CONDUIT    970.36     0  03:01      1.93    0.72    1.00
  YS02001790YS02001791 CONDUIT    970.36     0  03:01      2.26    1.06    1.00
  YS02001791YS02001793 CONDUIT    970.60     0  03:00      4.33    0.42    1.00
  YS02001910YS02001907 CONDUIT    541.55     0  03:01      0.69    0.31    1.00
  YS02001786YS02001788 CONDUIT    970.14     0  03:00      1.93    1.87    1.00
  YS02001915YS02001910 CONDUIT    541.64     0  03:01      0.69    0.27    1.00
  YS02001918YS02001915 CONDUIT    270.22     0  02:52      0.44    0.15    1.00
  YS02001923YS02001920 CONDUIT    267.03     0  02:52      0.72    0.12    1.00
  YS02001926YS02001923 CONDUIT    257.67     0  02:53      0.82    0.37    0.95
  YS02001929YS02001926 CONDUIT    195.62     0  02:53      0.87    0.09    0.86
  YS02001920YS02001918 CONDUIT    269.96     0  02:52      0.70    0.26    1.00
  YS02001629YS02163301 CONDUIT    208.93     0  02:42      0.27    0.26    1.00
  YS02001619YS02001622 CONDUIT    338.14     0  03:01      0.60    0.50    1.00
  YS02001622YS02001625 CONDUIT    338.17     0  03:01      0.43    0.18    1.00
  YS02001625YS02001629 CONDUIT    207.36     0  02:47      0.26    0.10    1.00
  YS02163301YS02001633 CONDUIT    209.39     0  02:42      0.27    0.20    1.00
  YS02163601YS02164001 CONDUIT    439.42     0  02:48      0.56    0.39    1.00
  YS02164001YS02001641 CONDUIT    439.45     0  02:48      0.56    0.60    1.00
  YS02001641YS02001644 CONDUIT    439.11     0  02:48      0.56    1.42    1.00
  YS02001647YS02001649 CONDUIT    668.57     0  02:48      0.85    0.35    1.00
  YS02006553YS02006556 CONDUIT    671.75     0  03:32      0.86    0.57    1.00
  YS02006556YS02006558 CONDUIT    671.96     0  03:32      0.86    0.53    1.00
  YSB6556YSB1171       CONDUIT     41.33     0  03:02      0.13    0.04    0.80
  YS02001907YS02006553 CONDUIT    671.85     0  03:32      0.75    0.79    1.00
  YS02006558YS02006561 CONDUIT    969.08     0  03:00      3.43    2.14    1.00
  YS02001633YS02163601 CONDUIT    439.33     0  02:48      0.56    0.46    1.00
  YS02001644YS02001647 CONDUIT    668.77     0  02:48      0.85    0.39    1.00
  YS02001745YS02001748 CONDUIT    403.01     0  02:44      1.48    0.16    0.95
  YS02001748YS02001751 CONDUIT    399.48     0  03:01      1.03    0.20    1.00
  YS02001751YS02001754 CONDUIT    399.39     0  03:01      0.84    0.19    1.00
  YS02001754YS02001757 CONDUIT    399.71     0  03:01      0.51    0.16    1.00
  YS02001882YS02001884 CONDUIT     29.68     0  02:46      0.08    0.03    1.00
  YS02001884YS02001887 CONDUIT     36.54     0  02:44      0.05    0.05    1.00
  YS02001890YS02001895 CONDUIT    516.98     0  03:08      0.66    0.24    1.00
  YS02001895YS02001898 CONDUIT    517.20     0  03:07      0.66    0.90    1.00
  YS02001898YS02001901 CONDUIT    517.12     0  03:05      0.66    0.33    1.00
  YS02001901YS02001904 CONDUIT    516.97     0  03:00      0.66    0.80    1.00
  YS02001904YS02001907 CONDUIT    517.14     0  03:08      0.66    0.18    1.00
  YS02001887YS02001890 CONDUIT    623.44     0  03:01      0.79    1.07    1.00
  YS02001652YS02001649 CONDUIT    480.74     0  03:01      0.61    0.24    1.00
  YS02001655YS02001652 CONDUIT    480.01     0  03:01      0.89    0.23    1.00
  YS02001658YS02001655 CONDUIT    479.59     0  03:01      1.18    0.20    1.00
  YS02001661YS02001658 CONDUIT    579.08     0  02:40      1.55    0.23    1.00
  YS02001664YS02001661 CONDUIT    711.15     0  02:53      1.47    0.22    0.74
  YSB1154YSB6556       CONDUIT     41.77     0  03:01      0.19    0.08    0.69
  YSB1174YSB1171       CONDUIT     34.49     0  03:01      0.10    0.05    0.81
  YSB1171HS02004479    CONDUIT     72.19     0  03:02      0.54    0.05    0.65
  HS02004881HS02006253 CONDUIT    131.62     0  03:01      2.17    0.03    0.24
  YS02001793JiankangQianchi CONDUIT    970.58     0  03:01     12.03    0.08    1.00
  YS02001757CaochengTiaoxuchi CONDUIT   1820.65     0  02:49      2.43    0.80    1.00
  WSF200WS02003060     CONDUIT    767.49     0  03:05      1.97    0.17    0.39
  1                    CONDUIT   1065.39     0  03:08      3.38    0.37    0.42
  2                    CONDUIT    114.91     0  03:00      5.04    0.28    0.36
  3                    CONDUIT    597.65     0  00:00     10.05    0.95    0.86
  4                    CONDUIT      0.00     0  00:00      0.00    0.00    0.00
  CC-Pump-1            PUMP       200.00     0  02:50              1.00
  CC-Pump-2            PUMP       200.00     0  04:10              1.00
  JK-Pump-1            PUMP       300.00     0  00:00              1.00
  JK-Pump-2            PUMP       300.00     0  00:00              1.00
  XR-Pump-1            PUMP        95.00     0  00:40              1.00
  XR-Pump-2            PUMP        95.00     0  01:10              1.00
  XR-Pump-3            PUMP        95.00     0  00:30              1.00
  XR-Pump-4            PUMP        95.00     0  04:30              1.00
  
  
  ***************************
  Flow Classification Summary
  ***************************
  
  -------------------------------------------------------------------------------------
                      Adjusted    ---------- Fraction of Time in Flow Class ---------- 
                       /Actual         Up    Down  Sub   Sup   Up    Down  Norm  Inlet 
  Conduit               Length    Dry  Dry   Dry   Crit  Crit  Crit  Crit  Ltd   Ctrl  
  -------------------------------------------------------------------------------------
  WS02003066WSF200        1.00   0.07  0.00  0.00  0.00  0.93  0.00  0.00  0.67  0.00
  WS02006287WS02006284    1.00   0.03  0.01  0.00  0.65  0.30  0.00  0.00  0.67  0.00
  WS02006284WS02006280    1.00   0.04  0.00  0.00  0.00  0.00  0.00  0.96  0.00  0.00
  WS02006280WS02006229    1.00   0.04  0.00  0.00  0.00  0.00  0.00  0.96  0.00  0.00
  WS02006229WS02006228    1.00   0.00  0.00  0.00  0.98  0.00  0.00  0.02  0.00  0.00
  WS02006256WS02006235    1.00   0.00  0.00  0.00  1.00  0.00  0.00  0.00  0.00  0.00
  WS02006253WS02006251    1.00   0.02  0.01  0.00  0.96  0.00  0.00  0.00  0.00  0.00
  WS02006252WS02006251    1.00   0.11  0.00  0.00  0.00  0.00  0.89  0.00  0.00  0.00
  WS02006251WS02006249    1.00   0.00  0.00  0.00  1.00  0.00  0.00  0.00  0.33  0.00
  WS02006249WS02006248    1.00   0.00  0.02  0.00  0.80  0.00  0.18  0.00  0.00  0.00
  WS02006248WS02006247    1.00   0.02  0.00  0.00  0.97  0.00  0.00  0.01  0.24  0.00
  WS02006247WS02006245    1.00   0.02  0.00  0.00  0.96  0.00  0.00  0.02  0.00  0.00
  WS02006245WS02006243    1.00   0.02  0.00  0.00  0.94  0.00  0.00  0.04  0.01  0.00
  WS02006243WS02006242    1.00   0.01  0.00  0.00  0.99  0.00  0.00  0.00  0.31  0.00
  WS02006242WS02006240    1.00   0.01  0.00  0.00  0.99  0.00  0.00  0.00  0.00  0.00
  WS02006240WS02006239    1.00   0.00  0.00  0.00  0.95  0.00  0.00  0.05  0.01  0.00
  WS02006239WS02006238    1.00   0.00  0.00  0.00  1.00  0.00  0.00  0.00  0.13  0.00
  WS02006238WS02006235    1.00   0.00  0.00  0.00  1.00  0.00  0.00  0.00  0.00  0.00
  WS02006235WS02006234    1.00   0.00  0.00  0.00  0.95  0.00  0.05  0.00  0.00  0.00
  WS02006234WS02006232    1.00   0.00  0.00  0.00  1.00  0.00  0.00  0.00  0.13  0.00
  WS02006232WS02006231    1.00   0.00  0.00  0.00  0.99  0.00  0.01  0.00  0.00  0.00
  WS02006231WS02006230    1.00   0.00  0.00  0.00  0.62  0.00  0.38  0.00  0.00  0.00
  WS02006230WS02006229    1.00   0.00  0.00  0.00  0.98  0.00  0.00  0.02  0.01  0.00
  WS02006228WS02006109    1.00   0.00  0.00  0.00  1.00  0.00  0.00  0.00  0.00  0.00
  WS02006116WS02004401    1.00   0.02  0.00  0.00  0.98  0.00  0.00  0.00  0.00  0.00
  WS02006115WS02006116    1.00   0.02  0.00  0.00  0.97  0.00  0.00  0.01  0.01  0.00
  WS02006113WS02006111    1.00   0.02  0.00  0.00  0.01  0.97  0.00  0.00  0.13  0.00
  WS02006112WS02006115    1.00   0.02  0.00  0.00  0.98  0.00  0.00  0.00  0.00  0.00
  WS02006111WS02006112    1.00   0.02  0.00  0.00  0.98  0.00  0.00  0.00  0.93  0.00
  WS02006110WS02006113    1.00   0.02  0.00  0.00  0.98  0.00  0.00  0.00  0.00  0.00
  WS02006109WS02006110    1.00   0.00  0.02  0.00  0.98  0.00  0.00  0.00  0.00  0.00
  WS02004411WS02004412    1.00   0.05  0.00  0.00  0.95  0.00  0.00  0.00  0.00  0.00
  WS02004401WS02004402    1.00   0.02  0.00  0.00  0.98  0.00  0.00  0.00  0.00  0.00
  WS02004413WS02003067    1.00   0.05  0.01  0.00  0.00  0.00  0.93  0.00  0.00  0.00
  WS02004412WS02004413    1.00   0.05  0.00  0.00  0.95  0.00  0.00  0.00  0.01  0.00
  WS02004410WS02004411    1.00   0.05  0.00  0.00  0.95  0.00  0.00  0.00  0.00  0.00
  WS02004409WS02004410    1.00   0.05  0.00  0.00  0.95  0.00  0.00  0.00  0.00  0.00
  WS02004407WS02004409    1.00   0.05  0.00  0.00  0.95  0.00  0.00  0.00  0.79  0.00
  WS02004406WS02004407    1.00   0.00  0.05  0.00  0.95  0.00  0.00  0.00  0.00  0.00
  WS02004405WS02004406    1.00   0.00  0.00  0.00  1.00  0.00  0.00  0.00  0.02  0.00
  WS02004404WS02004405    1.00   0.00  0.00  0.00  1.00  0.00  0.00  0.00  0.00  0.00
  WS02004403WS02004404    1.00   0.00  0.02  0.00  0.98  0.00  0.00  0.00  0.02  0.00
  WS02004402WS02004403    1.00   0.02  0.00  0.00  0.98  0.00  0.00  0.00  0.00  0.00
  WS02004139WS02001211    1.00   0.00  0.01  0.00  0.99  0.00  0.00  0.00  0.00  0.00
  WS02004138WS02004139    1.00   0.02  0.00  0.00  0.98  0.00  0.00  0.00  0.98  0.00
  WS02003067WS02003066    1.00   0.07  0.00  0.00  0.93  0.00  0.00  0.00  0.00  0.00
  WS02001213WS02003059    1.00   0.00  0.01  0.00  0.99  0.00  0.00  0.00  0.00  0.00
  WS02001212WS02001213    1.00   0.02  0.00  0.00  0.77  0.00  0.21  0.00  0.00  0.00
  WS02001211WS02001212    1.00   0.00  0.02  0.00  0.98  0.00  0.00  0.00  0.00  0.00
  WS02003072WS02003073    1.00   0.00  0.00  0.00  0.00  0.00  0.00  1.00  0.00  0.00
  WS02003069WS02003072    1.00   0.00  0.00  0.00  0.99  0.01  0.00  0.00  0.30  0.00
  WS02003060WS02003069    1.00   0.00  0.00  0.00  0.99  0.01  0.00  0.00  0.12  0.00
  WS02003059WS02003060    1.00   0.00  0.00  0.00  0.99  0.01  0.00  0.00  0.04  0.00
  HS02004901HS02004770    1.00   0.04  0.00  0.00  0.96  0.00  0.00  0.00  0.01  0.00
  HS02004876HS02004881    1.00   0.02  0.00  0.00  0.90  0.08  0.00  0.00  0.00  0.00
  HS02004870HS02004876    1.00   0.01  0.00  0.00  0.99  0.00  0.00  0.00  0.95  0.00
  HS02004842HS02004848    1.00   0.00  0.04  0.00  0.96  0.00  0.00  0.00  0.58  0.00
  HS02004837HS02004842    1.00   0.00  0.00  0.00  0.99  0.01  0.00  0.00  0.11  0.00
  HS02004830HS02004837    1.00   0.00  0.00  0.00  1.00  0.00  0.00  0.00  0.99  0.00
  HS02004824HS02004830    1.00   0.00  0.00  0.00  1.00  0.00  0.00  0.00  0.01  0.00
  HS02004817HS02004824    1.00   0.00  0.00  0.00  1.00  0.00  0.00  0.00  0.98  0.00
  HS02004770HS02004777    1.00   0.00  0.04  0.00  0.96  0.00  0.00  0.00  0.04  0.00
  HS02004799HS02004480    1.00   0.00  0.02  0.00  0.95  0.00  0.02  0.00  0.00  0.00
  HS02004792HS02004799    1.00   0.00  0.00  0.00  0.99  0.01  0.00  0.00  0.98  0.00
  HS02004788HS02004792    1.00   0.00  0.00  0.00  0.98  0.02  0.00  0.00  0.98  0.00
  HS02004785HS02004788    1.00   0.00  0.00  0.00  1.00  0.00  0.00  0.00  0.00  0.00
  HS02004777HS02004785    1.00   0.00  0.00  0.00  1.00  0.00  0.00  0.00  0.15  0.00
  HS02004480HS02004478    1.00   0.04  0.00  0.00  0.74  0.00  0.00  0.22  0.00  0.00
  HS02004479HS02004480    1.00   0.02  0.00  0.00  0.98  0.00  0.00  0.00  0.13  0.00
  HS02004862HS02004870    1.00   0.00  0.00  0.00  1.00  0.00  0.00  0.00  0.06  0.00
  HS02004848HS02004852    1.00   0.04  0.00  0.00  0.96  0.00  0.00  0.00  0.64  0.00
  HS02004856HS02004862    1.00   0.00  0.05  0.00  0.95  0.00  0.00  0.00  0.79  0.00
  HS02004852HS02004856    1.00   0.04  0.00  0.00  0.96  0.00  0.00  0.00  0.81  0.00
  HS02004802HS02004478    1.00   0.04  0.00  0.00  0.96  0.00  0.00  0.00  0.03  0.00
  HS02004478WS02006287    1.00   0.05  0.00  0.00  0.81  0.15  0.00  0.00  0.66  0.00
  HS02004817HS02004807    1.00   0.00  0.04  0.00  0.96  0.00  0.00  0.00  0.01  0.00
  HS02004807HS02004802    1.00   0.04  0.00  0.00  0.96  0.00  0.00  0.00  0.00  0.00
  YS02001759YS02001757    1.00   0.00  0.00  0.00  1.00  0.00  0.00  0.00  0.17  0.00
  YS02001762YS02001759    1.00   0.00  0.00  0.00  1.00  0.00  0.00  0.00  0.04  0.00
  YS02001765YS02001762    1.00   0.00  0.00  0.00  1.00  0.00  0.00  0.00  0.17  0.00
  YS02001770YS02001767    1.00   0.00  0.00  0.00  1.00  0.00  0.00  0.00  0.00  0.00
  YS02001774YS02001770    1.00   0.00  0.04  0.00  0.96  0.00  0.00  0.00  0.04  0.00
  YS02001779YS02001774    1.00   0.00  0.00  0.00  1.00  0.00  0.00  0.00  0.22  0.00
  YS02001649YS02001757    1.00   0.00  0.00  0.00  1.00  0.00  0.00  0.00  0.17  0.00
  YS02001767YS02001765    1.00   0.00  0.00  0.00  1.00  0.00  0.00  0.00  0.01  0.00
  YS02006561YS02001783    1.00   0.06  0.00  0.00  0.48  0.47  0.00  0.00  0.53  0.00
  YS02001783YS02001784    1.00   0.00  0.06  0.00  0.94  0.00  0.00  0.00  0.01  0.00
  YS02001784YS02001785    1.00   0.00  0.00  0.00  1.00  0.00  0.00  0.00  0.21  0.00
  YS02001788YS02001790    1.00   0.00  0.00  0.00  0.59  0.41  0.00  0.00  0.47  0.00
  YS02001790YS02001791    1.00   0.00  0.00  0.00  0.55  0.45  0.00  0.00  0.33  0.00
  YS02001791YS02001793    1.00   0.00  0.00  0.00  0.54  0.46  0.00  0.00  0.01  0.00
  YS02001910YS02001907    1.00   0.00  0.00  0.00  0.98  0.00  0.00  0.02  0.13  0.00
  YS02001786YS02001788    1.00   0.00  0.00  0.00  0.57  0.43  0.00  0.00  0.00  0.00
  YS02001915YS02001910    1.00   0.00  0.00  0.00  0.99  0.01  0.00  0.00  0.19  0.00
  YS02001918YS02001915    1.00   0.00  0.01  0.00  0.99  0.00  0.00  0.00  0.57  0.00
  YS02001923YS02001920    1.00   0.00  0.00  0.00  1.00  0.00  0.00  0.00  0.82  0.00
  YS02001926YS02001923    1.00   0.00  0.03  0.00  0.18  0.00  0.80  0.00  0.00  0.00
  YS02001929YS02001926    1.00   0.00  0.04  0.00  0.96  0.00  0.00  0.00  0.75  0.00
  YS02001920YS02001918    1.00   0.00  0.01  0.00  0.99  0.00  0.00  0.00  0.00  0.00
  YS02001629YS02163301    1.00   0.05  0.00  0.00  0.95  0.00  0.00  0.00  0.00  0.00
  YS02001619YS02001622    1.00   0.04  0.00  0.00  0.96  0.00  0.00  0.00  0.00  0.00
  YS02001622YS02001625    1.00   0.04  0.00  0.00  0.96  0.00  0.00  0.00  0.08  0.00
  YS02001625YS02001629    1.00   0.04  0.02  0.00  0.93  0.00  0.01  0.00  0.00  0.00
  YS02163301YS02001633    1.00   0.00  0.05  0.00  0.95  0.00  0.00  0.00  0.00  0.00
  YS02163601YS02164001    1.00   0.00  0.03  0.00  0.97  0.00  0.00  0.00  0.00  0.00
  YS02164001YS02001641    1.00   0.01  0.02  0.00  0.97  0.00  0.00  0.00  0.06  0.00
  YS02001641YS02001644    1.00   0.00  0.01  0.00  0.99  0.00  0.00  0.00  0.00  0.00
  YS02001647YS02001649    1.00   0.00  0.05  0.00  0.95  0.00  0.00  0.00  0.01  0.00
  YS02006553YS02006556    1.00   0.02  0.00  0.00  0.98  0.00  0.00  0.00  0.03  0.00
  YS02006556YS02006558    1.00   0.00  0.00  0.00  1.00  0.00  0.00  0.00  0.00  0.00
  YSB6556YSB1171          1.00   0.02  0.02  0.00  0.96  0.00  0.00  0.00  0.00  0.00
  YS02001907YS02006553    1.00   0.00  0.02  0.00  0.98  0.00  0.00  0.00  0.00  0.00
  YS02006558YS02006561    1.00   0.06  0.00  0.00  0.22  0.73  0.00  0.00  0.45  0.00
  YS02001633YS02163601    1.00   0.00  0.01  0.00  0.99  0.00  0.00  0.00  0.16  0.00
  YS02001644YS02001647    1.00   0.00  0.05  0.00  0.95  0.00  0.00  0.00  0.00  0.00
  YS02001745YS02001748    1.00   0.00  0.00  0.00  0.91  0.00  0.00  0.08  0.03  0.00
  YS02001748YS02001751    1.00   0.00  0.00  0.00  0.97  0.03  0.00  0.00  0.15  0.00
  YS02001751YS02001754    1.00   0.00  0.00  0.00  0.94  0.00  0.00  0.06  0.02  0.00
  YS02001754YS02001757    1.00   0.00  0.00  0.00  0.99  0.01  0.00  0.00  0.21  0.00
  YS02001882YS02001884    1.00   0.04  0.00  0.00  0.95  0.00  0.00  0.00  0.00  0.00
  YS02001884YS02001887    1.00   0.03  0.01  0.00  0.96  0.00  0.00  0.00  0.00  0.00
  YS02001890YS02001895    1.00   0.00  0.04  0.00  0.95  0.00  0.00  0.00  0.00  0.00
  YS02001895YS02001898    1.00   0.05  0.00  0.00  0.94  0.00  0.01  0.00  0.00  0.00
  YS02001898YS02001901    1.00   0.05  0.00  0.00  0.95  0.00  0.00  0.00  0.03  0.00
  YS02001901YS02001904    1.00   0.05  0.00  0.00  0.95  0.00  0.00  0.00  0.00  0.00
  YS02001904YS02001907    1.00   0.00  0.04  0.00  0.95  0.00  0.00  0.00  0.00  0.00
  YS02001887YS02001890    1.00   0.00  0.00  0.00  0.98  0.00  0.02  0.00  0.00  0.00
  YS02001652YS02001649    1.00   0.00  0.00  0.00  1.00  0.00  0.00  0.00  0.19  0.00
  YS02001655YS02001652    1.00   0.00  0.00  0.00  0.94  0.00  0.00  0.06  0.03  0.00
  YS02001658YS02001655    1.00   0.00  0.04  0.00  0.93  0.03  0.00  0.00  0.13  0.00
  YS02001661YS02001658    1.00   0.04  0.00  0.00  0.91  0.04  0.00  0.00  0.09  0.00
  YS02001664YS02001661    1.00   0.04  0.00  0.00  0.93  0.03  0.00  0.00  0.22  0.00
  YSB1154YSB6556          1.00   0.04  0.00  0.00  0.96  0.00  0.00  0.00  0.02  0.00
  YSB1174YSB1171          1.00   0.02  0.01  0.00  0.97  0.00  0.00  0.00  0.00  0.00
  YSB1171HS02004479       1.00   0.02  0.00  0.00  0.98  0.00  0.00  0.00  0.11  0.00
  HS02004881HS02006253    1.00   0.03  0.00  0.00  0.66  0.03  0.00  0.29  0.50  0.00
  YS02001793JiankangQianchi    1.00   0.00  0.00  0.00  0.63  0.37  0.00  0.00  0.19  0.00
  YS02001757CaochengTiaoxuchi    1.00   0.00  0.07  0.00  0.93  0.00  0.00  0.00  0.00  0.00
  WSF200WS02003060        1.00   0.00  0.07  0.00  0.56  0.37  0.00  0.00  0.19  0.00
  1                       1.00   0.00  0.00  0.00  0.00  1.00  0.00  0.00  0.29  0.00
  2                       1.00   0.77  0.00  0.00  0.00  0.23  0.00  0.00  0.05  0.00
  3                       1.00   0.14  0.00  0.00  0.00  0.86  0.00  0.00  0.03  0.00
  4                       1.00   1.00  0.00  0.00  0.00  0.00  0.00  0.00  0.00  0.00
  
  
  *************************
  Conduit Surcharge Summary
  *************************
  
  ----------------------------------------------------------------------------
                                                           Hours        Hours 
                         --------- Hours Full --------   Above Full   Capacity
  Conduit                Both Ends  Upstream  Dnstream   Normal Flow   Limited
  ----------------------------------------------------------------------------
  WS02006229WS02006228        1.61      1.93      1.61      4.16         1.61
  WS02006256WS02006235        5.29      5.29      6.60      3.23         0.01
  WS02006252WS02006251        0.53      0.53      1.19      1.02         0.01
  WS02006251WS02006249        0.01      0.01      0.01      0.50         0.01
  WS02006249WS02006248        0.01      0.01      0.01      3.55         0.01
  WS02006247WS02006245        0.01      0.01      0.01      4.01         0.01
  WS02006245WS02006243        0.01      0.01      0.06      0.01         0.01
  WS02006243WS02006242        0.17      0.17      0.57      0.01         0.01
  WS02006242WS02006240        0.28      0.28      0.99      1.18         0.01
  WS02006240WS02006239        0.29      0.29      0.31      0.03         0.01
  WS02006239WS02006238        0.87      0.87      1.03      0.11         0.08
  WS02006238WS02006235        0.87      0.87      1.28      0.01         0.01
  WS02006235WS02006234        0.33      0.33      0.64      5.18         0.01
  WS02006234WS02006232        0.36      0.36      1.68      0.01         0.01
  WS02006232WS02006231        0.34      0.34      1.68      0.01         0.01
  WS02006231WS02006230        0.33      0.33      0.35      5.16         0.01
  WS02006230WS02006229        2.63      3.81      2.63      5.57         2.62
  WS02006228WS02006109        1.80      2.32      1.80      4.82         1.80
  WS02006116WS02004401        0.21      0.21      0.22      0.15         0.16
  WS02006115WS02006116        0.06      0.06      0.07      0.01         0.01
  WS02006112WS02006115        0.04      0.04      0.54      0.01         0.01
  WS02006111WS02006112        0.01      0.01      4.34      0.01         0.01
  WS02006110WS02006113        0.01      0.01      2.12      0.01         0.01
  WS02006109WS02006110        0.45      0.45      2.32      0.45         0.01
  WS02004411WS02004412        0.01      0.01      0.01      0.19         0.01
  WS02004401WS02004402        0.22      0.22      0.24      0.01         0.01
  WS02004410WS02004411        0.01      0.01      0.01      0.12         0.01
  WS02004406WS02004407        0.01      0.01      0.32      0.01         0.01
  WS02004405WS02004406        0.32      0.34      0.32      0.50         0.32
  WS02004404WS02004405        0.34      0.36      0.34      5.88         0.34
  WS02004403WS02004404        0.25      0.25      0.36      0.01         0.01
  WS02004402WS02004403        0.24      0.24      0.25      0.21         0.21
  WS02003072WS02003073        0.01      0.01      0.01      4.67         0.01
  HS02004876HS02004881        0.01      0.01      0.01      0.17         0.01
  HS02004785HS02004788        0.01      0.01      0.01      0.10         0.01
  HS02004480HS02004478        0.01      0.01      0.01      0.52         0.01
  YS02001759YS02001757        5.54      5.54      5.62      0.01         0.01
  YS02001762YS02001759        5.52      5.52      5.54      0.01         0.01
  YS02001765YS02001762        5.49      5.49      5.52      0.01         0.01
  YS02001770YS02001767        5.47      5.47      5.47      0.25         0.74
  YS02001774YS02001770        5.46      5.46      5.51      0.01         0.01
  YS02001779YS02001774        5.36      5.36      5.51      0.01         0.01
  YS02001649YS02001757        5.52      5.52      5.62      0.01         0.01
  YS02001767YS02001765        5.47      5.47      5.49      0.01         0.01
  YS02006561YS02001783        0.92      0.92      1.62      0.01         0.01
  YS02001783YS02001784        1.62      1.62      1.70      1.28         1.27
  YS02001784YS02001785        1.62      1.70      1.62      2.21         1.62
  YS02001788YS02001790        1.61      1.61      3.06      0.01         0.01
  YS02001790YS02001791        3.06      3.06      3.23      0.76         0.75
  YS02001791YS02001793        3.23      3.23      3.35      0.01         0.01
  YS02001910YS02001907        1.24      1.24      1.69      0.01         0.01
  YS02001786YS02001788        1.61      1.62      1.61      1.84         1.61
  YS02001915YS02001910        1.03      1.03      1.24      0.01         0.01
  YS02001918YS02001915        0.79      0.79      1.03      0.01         0.01
  YS02001923YS02001920        0.63      0.63      0.83      0.01         0.01
  YS02001920YS02001918        0.79      0.79      0.83      0.01         0.01
  YS02001629YS02163301        5.46      5.46      5.46      0.01         0.01
  YS02001619YS02001622        5.21      5.21      5.23      0.01         0.01
  YS02001622YS02001625        5.23      5.23      5.43      0.01         0.01
  YS02001625YS02001629        5.22      5.22      5.43      0.01         0.01
  YS02163301YS02001633        5.46      5.46      5.49      0.01         0.01
  YS02163601YS02164001        5.49      5.49      5.53      0.01         0.01
  YS02164001YS02001641        5.49      5.49      5.50      0.01         0.02
  YS02001641YS02001644        5.50      5.50      5.50      1.47         1.49
  YS02001647YS02001649        5.42      5.42      5.52      0.01         0.01
  YS02006553YS02006556        1.45      1.45      1.76      0.01         0.01
  YS02006556YS02006558        1.57      1.57      1.81      0.01         0.01
  YS02001907YS02006553        2.24      2.24      2.45      0.01         0.01
  YS02006558YS02006561        1.13      1.41      1.13      2.08         1.13
  YS02001633YS02163601        5.49      5.49      5.53      0.01         0.01
  YS02001644YS02001647        5.42      5.42      5.50      0.01         0.01
  YS02001745YS02001748        0.01      0.01      5.07      0.01         0.01
  YS02001748YS02001751        5.10      5.10      5.21      0.01         0.01
  YS02001751YS02001754        5.21      5.21      5.38      0.01         0.01
  YS02001754YS02001757        5.41      5.41      5.62      0.01         0.01
  YS02001882YS02001884        1.04      1.04      1.08      0.01         0.01
  YS02001884YS02001887        1.13      1.13      1.16      0.01         0.01
  YS02001890YS02001895        1.02      1.02      1.26      0.01         0.01
  YS02001895YS02001898        1.00      1.00      1.02      0.01         0.01
  YS02001898YS02001901        1.03      1.03      1.13      0.01         0.01
  YS02001901YS02001904        1.11      1.11      1.13      0.01         0.01
  YS02001904YS02001907        1.11      1.11      1.78      0.01         0.01
  YS02001887YS02001890        1.19      1.19      1.22      0.07         0.01
  YS02001652YS02001649        5.42      5.42      5.52      0.01         0.01
  YS02001655YS02001652        5.23      5.23      5.41      0.01         0.01
  YS02001658YS02001655        5.10      5.10      5.23      0.01         0.01
  YS02001661YS02001658        0.26      0.26      5.10      0.01         0.01
  YS02001664YS02001661        0.01      0.01      1.28      0.01         0.01
  YS02001793JiankangQianchi        3.32      3.32      3.85      0.01         0.01
  YS02001757CaochengTiaoxuchi        4.92      4.92      5.62      0.01         0.01
  3                           0.01      0.01      0.01      0.01         0.01
  
  
  ***************
  Pumping Summary
  ***************
  
  ---------------------------------------------------------------------------------------------------------
                                                  Min       Avg       Max     Total     Power    % Time Off
                        Percent   Number of      Flow      Flow      Flow    Volume     Usage    Pump Curve
  Pump                 Utilized   Start-Ups       LPS       LPS       LPS  10^6 ltr     Kw-hr    Low   High
  ---------------------------------------------------------------------------------------------------------
  CC-Pump-1               51.06           6      0.00    140.00    200.00     1.980      1.96    0.0    0.0
  CC-Pump-2               42.55           3      0.00    117.75    200.00     1.440      1.29    0.0    0.0
  JK-Pump-1               59.58           4      0.00    189.29    300.00     2.857     28.21    0.0    0.0
  JK-Pump-2               57.44           6      0.00    175.54    300.00     2.417     27.87    0.0    0.0
  XR-Pump-1               82.97           5      0.00     69.69     95.00     1.710     10.67    0.0    0.0
  XR-Pump-2               78.71           8      0.00     61.79     95.00     1.482      9.31    0.0    0.0
  XR-Pump-3               91.47           8      0.00     61.22     95.00     1.795     11.12    0.0    0.0
  XR-Pump-4               48.93           7      0.00     62.50     95.00     0.826      3.92    0.0    0.0
  

  Analysis begun on:  Wed Dec 22 10:58:29 2021
  Analysis ended on:  Wed Dec 22 10:58:33 2021
  Total elapsed time: 00:00:04