
  EPA STORM WATER MANAGEMENT MODEL - VERSION 5.1 (Build 5.3.0.dev0)
  --------------------------------------------------------------

  WARNING 04: minimum elevation drop used for Conduit WS02004404WS02004405
  WARNING 03: negative offset ignored for Link YS02001904YS02001907
  
  *********************************************************
  NOTE: The summary statistics displayed in this report are
  based on results found at every computational time step,  
  not just on results from each reporting time step.
  *********************************************************
  
  ****************
  Analysis Options
  ****************
  Flow Units ............... LPS
  Process Models:
    Rainfall/Runoff ........ YES
    RDII ................... NO
    Snowmelt ............... NO
    Groundwater ............ NO
    Flow Routing ........... YES
    Ponding Allowed ........ NO
    Water Quality .......... NO
  Infiltration Method ...... HORTON
  Flow Routing Method ...... DYNWAVE
  Surcharge Method ......... EXTRAN
  Starting Date ............ 08/28/2015 08:00:00
  Ending Date .............. 08/28/2015 15:50:00
  Antecedent Dry Days ...... 8.0
  Report Time Step ......... 00:01:00
  Wet Time Step ............ 00:01:00
  Dry Time Step ............ 00:01:00
  Routing Time Step ........ 5.00 sec
  Variable Time Step ....... YES
  Maximum Trials ........... 8
  Number of Threads ........ 4
  Head Tolerance ........... 0.001500 m
  
  
  **************************        Volume         Depth
  Runoff Quantity Continuity     hectare-m            mm
  **************************     ---------       -------
  Total Precipitation ......         6.144        13.452
  Evaporation Loss .........         0.000         0.000
  Infiltration Loss ........         1.572         3.442
  Surface Runoff ...........         3.480         7.619
  Final Storage ............         1.093         2.393
  Continuity Error (%) .....        -0.016
  
  
  **************************        Volume        Volume
  Flow Routing Continuity        hectare-m      10^6 ltr
  **************************     ---------     ---------
  Dry Weather Inflow .......         0.616         6.165
  Wet Weather Inflow .......         3.479        34.788
  Groundwater Inflow .......         0.000         0.000
  RDII Inflow ..............         0.000         0.000
  External Inflow ..........         0.102         1.024
  External Outflow .........         1.870        18.700
  Flooding Loss ............         1.763        17.630
  Evaporation Loss .........         0.000         0.000
  Exfiltration Loss ........         0.000         0.000
  Initial Stored Volume ....         0.076         0.761
  Final Stored Volume ......         0.663         6.634
  Continuity Error (%) .....        -0.531
  
  
  *************************
  Highest Continuity Errors
  *************************
  Node HS02004842 (15.27%)
  Node YS02001884 (11.88%)
  Node YSB1171 (2.79%)
  Node HS02004817 (2.78%)
  Node JK-storage (-2.08%)
  
  
  ***************************
  Time-Step Critical Elements
  ***************************
  Link WS02006252WS02006251 (57.11%)
  Link 3 (31.90%)
  Link WS02006238WS02006235 (3.29%)
  Link WS02006280WS02006229 (3.10%)
  
  
  ********************************
  Highest Flow Instability Indexes
  ********************************
  Link YS02163601YS02164001 (42)
  Link YS02163301YS02001633 (42)
  Link YS02001629YS02163301 (41)
  Link YS02001619YS02001622 (41)
  Link WS02006113WS02006111 (39)
  
  
  *************************
  Routing Time Step Summary
  *************************
  Minimum Time Step           :     0.15 sec
  Average Time Step           :     0.85 sec
  Maximum Time Step           :     5.00 sec
  Percent in Steady State     :    -0.00
  Average Iterations per Step :     4.61
  Percent Not Converging      :    20.74
  
  
  ***************************
  Subcatchment Runoff Summary
  ***************************
  
  ------------------------------------------------------------------------------------------------------------------------------
                            Total      Total      Total      Total     Imperv       Perv      Total       Total     Peak  Runoff
                           Precip      Runon       Evap      Infil     Runoff     Runoff     Runoff      Runoff   Runoff   Coeff
  Subcatchment                 mm         mm         mm         mm         mm         mm         mm    10^6 ltr      LPS
  ------------------------------------------------------------------------------------------------------------------------------
  sub0                      13.45       0.00       0.00       0.89      11.25       0.05      11.30        0.01     3.67   0.840
  sub1                      13.45       0.00       0.00       1.45      10.71       0.03      10.74        0.07    24.31   0.799
  sub2                      13.45       0.00       0.00       4.95       7.56       0.02       7.58        0.07    22.93   0.564
  sub3                      13.45       0.00       0.00       4.96       7.52       0.02       7.54        0.17    51.30   0.560
  sub4                      13.45       0.00       0.00       1.46      10.54       0.02      10.56        0.22    61.94   0.785
  sub5                      13.45       0.00       0.00       0.91      11.19       0.03      11.22        0.13    43.21   0.834
  sub7                      13.45       0.00       0.00       1.17      10.98       0.04      11.03        0.04    13.69   0.820
  sub8                      13.45       0.00       0.00       1.17      10.97       0.04      11.01        0.07    25.15   0.819
  sub9                      13.45       0.00       0.00       1.17      10.97       0.04      11.01        0.05    18.81   0.818
  sub10                     13.45       0.00       0.00       1.04      11.08       0.03      11.11        0.12    42.29   0.826
  sub11                     13.45       0.00       0.00       1.04      11.10       0.04      11.14        0.13    46.68   0.828
  sub12                     13.45       0.00       0.00       1.69      10.51       0.06      10.58        0.09    35.94   0.786
  sub14                     13.45       0.00       0.00       1.17      10.97       0.04      11.01        0.10    37.02   0.818
  sub15                     13.45       0.00       0.00       4.00       8.43       0.04       8.47        0.15    51.03   0.630
  sub16                     13.45       0.00       0.00       4.38       8.09       0.06       8.15        0.09    32.58   0.606
  sub17                     13.45       0.00       0.00       4.25       8.21       0.06       8.27        0.07    26.73   0.615
  sub22                     13.45       0.00       0.00       5.74       6.88       0.04       6.92        0.44   159.06   0.514
  sub23                     13.45       0.00       0.00       4.93       7.60       0.05       7.65        0.36   133.95   0.569
  sub60                     13.45       0.00       0.00       1.61       8.73       0.00       8.74        2.65   387.96   0.649
  sub61                     13.45       0.00       0.00       2.28       8.88       0.00       8.88        2.74   483.52   0.660
  sub62                     13.45       0.00       0.00       1.07       9.65       0.00       9.66        2.97   496.42   0.718
  sub63                     13.45       0.00       0.00       3.90       7.77       0.00       7.77        2.35   446.68   0.578
  sub64                     13.45       0.00       0.00       2.01       8.38       0.00       8.38        2.55   368.35   0.623
  sub65                     13.45       0.00       0.00       1.75       8.52       0.00       8.52        2.62   373.60   0.634
  sub66                     13.45       0.00       0.00       3.90       7.19       0.00       7.19        2.21   337.96   0.535
  sub67                     13.45       0.00       0.00       1.07      10.19       0.01      10.19        3.15   622.58   0.758
  sub68                     13.45       0.00       0.00       1.88       9.34       0.01       9.34        2.87   531.38   0.694
  sub69                     13.45       0.00       0.00       2.01       9.68       0.01       9.69        2.26   503.32   0.720
  sub70                     13.45       9.89       0.00       7.67      12.93       0.26      13.20        3.02   423.72   0.565
  sub71                     13.45       0.00       0.00       1.07       9.40       0.00       9.40        2.22   347.35   0.699
  sub72                     13.45       0.00       0.00       0.94       7.49       0.00       7.50        1.53   163.23   0.557
  sub73                     13.45      12.84       0.00       8.67      14.26       0.27      14.53        3.41   375.92   0.552
  sub74                     13.45       0.00       0.00      10.09       2.88       0.00       2.89        1.15   273.25   0.215
  
  
  ******************
  Node Depth Summary
  ******************
  
  ---------------------------------------------------------------------------------
                                 Average  Maximum  Maximum  Time of Max    Reported
                                   Depth    Depth      HGL   Occurrence   Max Depth
  Node                 Type       Meters   Meters   Meters  days hr:min      Meters
  ---------------------------------------------------------------------------------
  WS02001211           JUNCTION     0.66     0.76     5.60     0  05:10        0.76
  WS02001212           JUNCTION     0.39     0.47     5.53     0  05:11        0.47
  WS02001213           JUNCTION     0.62     0.71     5.47     0  03:02        0.71
  WS02003069           JUNCTION     0.44     0.59     5.18     0  03:05        0.59
  WS02003072           JUNCTION     0.51     0.65     5.02     0  03:05        0.65
  WS02003073           JUNCTION     0.31     0.40     4.47     0  03:06        0.40
  WS02003060           JUNCTION     0.40     0.52     5.46     0  03:05        0.52
  WS02003066           JUNCTION     0.24     0.35     5.91     0  03:05        0.35
  WS02003059           JUNCTION     0.68     0.78     5.46     0  03:03        0.78
  WS02003067           JUNCTION     0.58     0.78     6.10     0  03:05        0.78
  WS02004401           JUNCTION     0.69     1.09     7.09     0  03:03        1.09
  WS02004402           JUNCTION     0.72     1.10     7.06     0  03:03        1.09
  WS02004403           JUNCTION     0.74     1.09     7.02     0  03:03        1.09
  WS02004404           JUNCTION     0.81     1.14     6.99     0  03:03        1.14
  WS02004406           JUNCTION     0.82     1.09     6.92     0  03:03        1.09
  WS02004409           JUNCTION     0.51     0.84     6.61     0  03:04        0.84
  WS02004410           JUNCTION     0.53     0.84     6.56     0  03:04        0.84
  WS02004411           JUNCTION     0.54     0.83     6.51     0  03:04        0.83
  WS02004412           JUNCTION     0.55     0.82     6.46     0  03:05        0.82
  WS02004413           JUNCTION     0.71     0.97     6.44     0  03:05        0.97
  WS02004405           JUNCTION     0.81     1.12     6.97     0  03:03        1.12
  WS02006109           JUNCTION     0.77     1.24     7.86     0  03:02        1.23
  WS02006110           JUNCTION     0.76     1.09     7.68     0  03:02        1.09
  WS02006111           JUNCTION     0.23     0.57     7.28     0  03:03        0.57
  WS02006112           JUNCTION     0.86     1.36     7.25     0  03:03        1.35
  WS02006113           JUNCTION     0.35     0.59     7.48     0  03:03        0.59
  WS02006115           JUNCTION     0.58     1.04     7.18     0  03:03        1.04
  WS02006116           JUNCTION     0.67     1.10     7.14     0  03:03        1.10
  WS02006230           JUNCTION     0.74     1.35     8.09     0  03:02        1.34
  WS02006231           JUNCTION     0.49     0.98     8.11     0  03:02        0.97
  WS02006232           JUNCTION     0.63     1.08     8.12     0  03:02        1.07
  WS02006234           JUNCTION     0.54     1.10     8.26     0  02:47        0.95
  WS02006235           JUNCTION     0.57     1.00     8.16     0  02:48        0.95
  WS02006238           JUNCTION     0.60     1.03     8.17     0  02:48        0.98
  WS02006240           JUNCTION     0.50     1.01     8.31     0  02:48        0.87
  WS02006242           JUNCTION     0.55     1.07     8.34     0  02:48        0.92
  WS02006243           JUNCTION     0.43     0.93     8.35     0  02:48        0.80
  WS02006245           JUNCTION     0.42     0.89     8.37     0  02:48        0.75
  WS02006247           JUNCTION     0.44     0.84     8.34     0  02:48        0.76
  WS02006248           JUNCTION     0.38     0.68     8.27     0  02:49        0.67
  WS02006249           JUNCTION     0.41     0.67     8.27     0  02:50        0.67
  WS02006239           JUNCTION     0.55     1.05     8.26     0  02:47        0.93
  WS02006251           JUNCTION     0.40     0.74     8.41     0  02:50        0.73
  WS02006252           JUNCTION     0.34     0.59     8.83     0  02:50        0.59
  WS02006253           JUNCTION     0.43     0.77     8.41     0  02:50        0.75
  WS02006256           JUNCTION     0.98     1.22     8.16     0  02:50        1.22
  WS02004138           JUNCTION     0.15     0.19     7.44     0  00:20        0.19
  WS02004407           JUNCTION     0.23     0.36     6.67     0  03:03        0.36
  WS02006228           JUNCTION     0.77     1.35     8.01     0  03:02        1.35
  WS02006229           JUNCTION     0.75     1.39     8.08     0  03:02        1.38
  WS02006280           JUNCTION     0.07     0.24     8.52     0  03:02        0.24
  WS02006284           JUNCTION     0.37     0.63     9.02     0  03:02        0.62
  WS02006287           JUNCTION     0.11     0.37     9.32     0  03:02        0.37
  WSF200               JUNCTION     0.23     0.38     5.61     0  03:05        0.38
  HS02004901           JUNCTION     0.13     0.35    10.17     0  03:01        0.35
  HS02004881           JUNCTION     0.01     0.05     9.08     0  03:01        0.05
  HS02004876           JUNCTION     0.05     0.15     9.18     0  03:01        0.15
  HS02004870           JUNCTION     0.02     0.09     9.37     0  03:01        0.09
  HS02004862           JUNCTION     0.02     0.10     9.49     0  03:01        0.10
  HS02004856           JUNCTION     0.08     0.15     9.57     0  03:01        0.15
  HS02004852           JUNCTION     0.01     0.07     9.58     0  03:02        0.07
  HS02004848           JUNCTION     0.01     0.06     9.67     0  03:01        0.06
  HS02004842           JUNCTION     0.33     0.40     9.67     0  03:01        0.40
  HS02004837           JUNCTION     0.03     0.09     9.67     0  03:01        0.09
  HS02004830           JUNCTION     0.04     0.10     9.57     0  03:01        0.10
  HS02004824           JUNCTION     0.03     0.11     9.51     0  03:02        0.11
  HS02004817           JUNCTION     0.44     0.67     9.52     0  03:02        0.67
  HS02004807           JUNCTION     0.13     0.34     9.51     0  03:02        0.34
  HS02004802           JUNCTION     0.17     0.38     9.50     0  03:02        0.38
  HS02004799           JUNCTION     0.13     0.43     9.65     0  03:01        0.43
  HS02004792           JUNCTION     0.04     0.20     9.72     0  03:01        0.19
  HS02004788           JUNCTION     0.03     0.14    10.04     0  03:02        0.14
  HS02004785           JUNCTION     0.05     0.23    10.13     0  03:02        0.23
  HS02004777           JUNCTION     0.15     0.37    10.17     0  03:01        0.37
  HS02004770           JUNCTION     0.12     0.34    10.17     0  03:01        0.34
  HS02004480           JUNCTION     0.09     0.35     9.59     0  03:01        0.35
  HS02004479           JUNCTION     0.12     0.39     9.60     0  03:01        0.39
  HS02004478           JUNCTION     0.07     0.26     9.48     0  03:01        0.26
  YS02001745           JUNCTION     0.72     0.89     8.41     0  03:25        0.89
  YS02001748           JUNCTION     1.12     2.00     9.08     0  02:46        1.33
  YS02001751           JUNCTION     1.30     1.86     8.74     0  02:45        1.53
  YS02001754           JUNCTION     1.55     1.91     8.52     0  02:46        1.82
  YS02001762           JUNCTION     1.75     2.03     8.43     0  03:25        2.03
  YS02001765           JUNCTION     1.70     1.98     8.43     0  03:03        1.98
  YS02001767           JUNCTION     1.67     1.94     8.43     0  03:05        1.93
  YS02001770           JUNCTION     1.66     1.92     8.41     0  03:05        1.91
  YS02001774           JUNCTION     1.73     1.98     8.40     0  03:00        1.97
  YS02001779           JUNCTION     1.48     1.68     8.37     0  02:45        1.68
  YS02001882           JUNCTION     0.59     1.65     8.36     0  02:50        1.63
  YS02001884           JUNCTION     0.68     1.74     8.36     0  02:50        1.72
  YS02001759           JUNCTION     1.79     2.07     8.44     0  03:08        2.07
  YS02001887           JUNCTION     0.76     1.81     8.35     0  03:00        1.81
  YS02001890           JUNCTION     0.79     1.81     8.32     0  02:50        1.81
  YS02001898           JUNCTION     0.56     1.57     8.30     0  02:50        1.56
  YS02001901           JUNCTION     0.68     1.68     8.29     0  02:50        1.67
  YS02001904           JUNCTION     0.65     1.64     8.27     0  02:50        1.63
  YS02001907           JUNCTION     0.98     1.96     8.25     0  02:50        1.96
  YS02001910           JUNCTION     0.77     1.79     8.29     0  02:52        1.78
  YS02001915           JUNCTION     0.57     1.62     8.33     0  02:50        1.59
  YS02001918           JUNCTION     0.32     1.42     8.49     0  02:50        1.29
  YS02001619           JUNCTION     1.27     1.61     8.54     0  02:41        1.48
  YS02001629           JUNCTION     1.62     1.85     8.40     0  02:41        1.84
  YS02001641           JUNCTION     1.72     1.93     8.37     0  03:22        1.93
  YS02001644           JUNCTION     1.72     1.92     8.35     0  02:46        1.92
  YS02001652           JUNCTION     1.57     2.16     8.76     0  02:55        2.00
  YS02001655           JUNCTION     1.33     2.20     9.05     0  02:55        1.90
  YS02001920           JUNCTION     0.42     1.38     8.38     0  02:52        1.37
  YS02001923           JUNCTION     0.25     1.14     8.40     0  02:52        1.13
  YS02001926           JUNCTION     0.30     0.98     8.43     0  02:51        0.98
  YS02001929           JUNCTION     0.17     0.76     8.45     0  02:52        0.71
  YS02001658           JUNCTION     1.06     2.30     9.44     0  02:57        1.71
  YS02001661           JUNCTION     0.83     2.46     9.86     0  02:56        1.62
  YS02001664           JUNCTION     0.37     0.57     8.49     0  02:53        0.56
  YS02001622           JUNCTION     1.29     1.59     8.50     0  02:41        1.50
  YS02001633           JUNCTION     1.71     1.95     8.40     0  02:46        1.94
  YS02001649           JUNCTION     1.76     2.05     8.44     0  02:53        2.05
  YS02001757           JUNCTION     1.88     2.17     8.44     0  03:23        2.16
  YS02001895           JUNCTION     0.55     1.57     8.31     0  02:50        1.56
  YS02001625           JUNCTION     1.57     1.78     8.38     0  02:41        1.78
  YS02163301           JUNCTION     1.65     1.90     8.41     0  02:43        1.88
  YS02163601           JUNCTION     1.76     1.99     8.39     0  02:46        1.98
  YS02164001           JUNCTION     1.70     1.92     8.38     0  02:46        1.91
  YS02001647           JUNCTION     1.55     1.80     8.41     0  02:53        1.79
  YSB1154              JUNCTION     0.26     0.54     9.60     0  03:01        0.54
  YSB6556              JUNCTION     0.16     0.43     9.60     0  03:02        0.43
  YSB1174              JUNCTION     0.22     0.49     9.60     0  03:01        0.49
  YSB1171              JUNCTION     0.41     0.69     9.60     0  03:01        0.69
  YS02006553           JUNCTION     0.98     1.97     8.25     0  03:00        1.97
  YS02006561           JUNCTION     0.35     1.13     7.79     0  02:50        1.10
  YS02006556           JUNCTION     0.95     1.93     8.24     0  02:50        1.93
  YS02006558           JUNCTION     0.99     1.97     8.24     0  03:00        1.96
  YS02001783           JUNCTION     0.60     1.52     7.66     0  02:50        1.49
  YS02001784           JUNCTION     0.62     1.47     7.54     0  02:50        1.44
  YS02001786           JUNCTION     0.57     1.31     7.34     0  02:50        1.29
  YS02001788           JUNCTION     0.51     1.17     7.15     0  02:50        1.15
  YS02001790           JUNCTION     0.66     1.96     7.60     0  02:21        1.30
  YS02001791           JUNCTION     0.68     1.71     7.18     0  02:21        1.28
  YS02001793           JUNCTION     1.00     2.25     7.08     0  02:18        1.80
  WS02004139           JUNCTION     0.60     0.71     5.62     0  05:10        0.71
  WSC                  OUTFALL      0.31     0.40     1.07     0  03:06        0.40
  3                    OUTFALL      0.08     0.22     6.22     0  02:50        0.22
  4                    OUTFALL      0.02     0.17     7.17     0  02:50        0.17
  5                    OUTFALL      0.00     0.00     5.00     0  00:00        0.00
  JK-storage           STORAGE      3.78     5.80     6.60     0  02:21        5.80
  CC-storage           STORAGE      1.12     1.38     8.38     0  03:29        1.38
  XR-storage           STORAGE      6.66     7.72     5.72     0  03:03        7.72
  
  
  *******************
  Node Inflow Summary
  *******************
  
  -------------------------------------------------------------------------------------------------
                                  Maximum  Maximum                  Lateral       Total        Flow
                                  Lateral    Total  Time of Max      Inflow      Inflow     Balance
                                   Inflow   Inflow   Occurrence      Volume      Volume       Error
  Node                 Type           LPS      LPS  days hr:min    10^6 ltr    10^6 ltr     Percent
  -------------------------------------------------------------------------------------------------
  WS02001211           JUNCTION      7.35   381.64     0  00:20       0.207        7.18       0.490
  WS02001212           JUNCTION      0.00   377.74     0  00:21           0        7.15       0.281
  WS02001213           JUNCTION      0.00   376.83     0  00:21           0        7.13       0.310
  WS02003069           JUNCTION      0.32   969.47     0  03:05     0.00902        15.3       0.161
  WS02003072           JUNCTION      0.00   969.33     0  03:05           0        15.2       0.208
  WS02003073           JUNCTION      1.82   971.11     0  03:06      0.0514        15.2       0.230
  WS02003060           JUNCTION     16.53   969.29     0  03:04       0.466        15.3       0.153
  WS02003066           JUNCTION      0.00   785.35     0  03:05           0        7.73       0.039
  WS02003059           JUNCTION      0.00   375.36     0  00:22           0        7.11       0.503
  WS02003067           JUNCTION      0.00   784.92     0  03:05           0        7.74       0.089
  WS02004401           JUNCTION      0.00   787.69     0  03:03           0        7.91       0.210
  WS02004402           JUNCTION      0.00   787.80     0  03:03           0         7.9       0.203
  WS02004403           JUNCTION      0.00   787.88     0  03:03           0        7.88       0.188
  WS02004404           JUNCTION      0.16   788.11     0  03:03     0.00457        7.87       0.147
  WS02004406           JUNCTION      0.00   788.19     0  03:03           0        7.84       0.358
  WS02004409           JUNCTION      0.00   787.91     0  03:03           0        7.81       0.127
  WS02004410           JUNCTION      0.00   786.58     0  03:04           0         7.8       0.150
  WS02004411           JUNCTION      0.00   785.61     0  03:04           0        7.79       0.161
  WS02004412           JUNCTION      0.00   785.07     0  03:04           0        7.78       0.184
  WS02004413           JUNCTION      0.00   784.85     0  03:05           0        7.76       0.287
  WS02004405           JUNCTION      0.04   788.16     0  03:03     0.00107        7.86       0.220
  WS02006109           JUNCTION      1.23   772.87     0  03:02      0.0347        7.94       0.246
  WS02006110           JUNCTION      0.00   772.87     0  03:02           0        7.92       0.212
  WS02006111           JUNCTION      0.00   770.14     0  03:03           0         7.9       0.043
  WS02006112           JUNCTION     26.73   786.99     0  03:03      0.0709        7.97       0.307
  WS02006113           JUNCTION      0.00   772.86     0  03:02           0        7.91       0.091
  WS02006115           JUNCTION      0.00   786.94     0  03:03           0        7.94       0.178
  WS02006116           JUNCTION      0.00   787.41     0  03:03           0        7.93       0.173
  WS02006230           JUNCTION     10.28   397.47     0  06:12        0.29        5.85       0.205
  WS02006231           JUNCTION      0.00   388.87     0  06:12           0        5.57       0.142
  WS02006232           JUNCTION      0.00   389.06     0  06:11           0        5.58       0.252
  WS02006234           JUNCTION      0.00   390.44     0  06:11           0        5.59       0.114
  WS02006235           JUNCTION      0.00   392.37     0  04:02           0        5.63       0.149
  WS02006238           JUNCTION      0.00   333.02     0  05:20           0         4.2       0.131
  WS02006240           JUNCTION      0.00   334.06     0  05:20           0        4.19       0.240
  WS02006242           JUNCTION      0.00   335.72     0  06:41           0        4.19       0.302
  WS02006243           JUNCTION      0.00   337.75     0  07:21           0        4.18      -0.012
  WS02006245           JUNCTION      0.00   342.10     0  07:21           0        4.19       0.237
  WS02006247           JUNCTION      0.00   347.72     0  04:00           0         4.2       0.157
  WS02006248           JUNCTION      0.00   353.55     0  04:00           0         4.2       0.079
  WS02006249           JUNCTION      0.00   486.46     0  02:50           0        4.54       0.239
  WS02006239           JUNCTION      0.00   334.02     0  05:20           0        4.19       0.080
  WS02006251           JUNCTION      0.08   492.41     0  02:50     0.00217        4.58       0.191
  WS02006252           JUNCTION      0.00   399.97     0  02:50           0        4.14       0.010
  WS02006253           JUNCTION      3.67   134.78     0  03:01     0.00915       0.442       0.821
  WS02006256           JUNCTION      0.00   599.97     0  05:30           0        4.62       0.050
  WS02004138           JUNCTION      0.00   379.98     0  05:10           0        7.01       0.075
  WS02004407           JUNCTION      0.00   788.29     0  03:03           0        7.82       0.060
  WS02006228           JUNCTION      0.00   771.76     0  03:02           0        7.92       0.158
  WS02006229           JUNCTION      0.00   771.53     0  03:02           0        7.93       0.153
  WS02006280           JUNCTION      0.00   611.97     0  03:02           0         2.1       0.003
  WS02006284           JUNCTION      0.10   611.07     0  03:02      0.0027         2.1       0.059
  WS02006287           JUNCTION      0.00   609.84     0  03:02           0         2.1       0.034
  WSF200               JUNCTION      0.00   785.52     0  03:05           0        7.73       0.033
  HS02004901           JUNCTION     32.58    32.58     0  03:01      0.0853      0.0856       2.107
  HS02004881           JUNCTION     13.69   131.68     0  03:01      0.0372       0.403       0.088
  HS02004876           JUNCTION     24.31   119.37     0  03:01      0.0714       0.367       0.153
  HS02004870           JUNCTION     25.15    96.63     0  03:01      0.0703       0.295       0.038
  HS02004862           JUNCTION     23.13    73.48     0  03:01      0.0763       0.225       0.079
  HS02004856           JUNCTION     18.81    51.88     0  03:01      0.0529        0.15       0.972
  HS02004852           JUNCTION      0.00    35.11     0  03:01           0      0.0975       0.061
  HS02004848           JUNCTION     51.30    51.30     0  03:01        0.17        0.17       0.030
  HS02004842           JUNCTION      0.00    15.11     0  03:01           0      0.0851      18.026
  HS02004837           JUNCTION     48.64    62.30     0  03:01       0.302       0.374       0.219
  HS02004830           JUNCTION      0.15    61.39     0  03:01     0.00423       0.364       0.341
  HS02004824           JUNCTION     61.99   121.77     0  03:01       0.222       0.584       0.093
  HS02004817           JUNCTION      0.60   117.99     0  03:02      0.0169       0.601       2.855
  HS02004807           JUNCTION     46.68   158.05     0  03:01       0.129       0.713       0.602
  HS02004802           JUNCTION      0.00   156.92     0  03:03           0       0.709       0.572
  HS02004799           JUNCTION     37.02   389.11     0  03:01       0.105        1.19       0.207
  HS02004792           JUNCTION    159.34   356.48     0  03:01       0.445        1.08       0.038
  HS02004788           JUNCTION     52.70   202.58     0  03:02       0.193       0.638       0.062
  HS02004785           JUNCTION      0.15   157.28     0  03:01     0.00423       0.447       0.111
  HS02004777           JUNCTION      0.03   160.02     0  03:01    0.000846       0.447       1.175
  HS02004770           JUNCTION    133.95   163.77     0  03:01       0.365       0.449       0.699
  HS02004480           JUNCTION      0.00   456.70     0  03:01           0         1.4       0.084
  HS02004479           JUNCTION      0.00    72.19     0  03:02           0       0.228       0.322
  HS02004478           JUNCTION      0.00   609.31     0  03:02           0         2.1       0.019
  YS02001745           JUNCTION    387.96   387.96     0  03:01        2.65        2.65       0.425
  YS02001748           JUNCTION      0.04   463.16     0  02:45     0.00127        2.64       0.898
  YS02001751           JUNCTION      0.01   398.57     0  03:01     0.00031        2.61       0.903
  YS02001754           JUNCTION      0.26   398.90     0  03:01     0.00733         2.6       0.965
  YS02001762           JUNCTION      0.00   376.26     0  02:53           0        1.88       1.127
  YS02001765           JUNCTION      0.00   376.35     0  02:53           0        1.88       1.297
  YS02001767           JUNCTION      0.54   376.40     0  02:53      0.0151         1.9       1.913
  YS02001770           JUNCTION    496.57   496.57     0  03:01        2.97        3.16       1.005
  YS02001774           JUNCTION      0.00   401.75     0  03:29           0        1.44       1.772
  YS02001779           JUNCTION      0.01   402.29     0  03:29    0.000141        1.41       1.104
  YS02001882           JUNCTION      0.00    27.68     0  02:46           0       0.018      15.240
  YS02001884           JUNCTION      0.00    35.13     0  02:45           0      0.0532      13.478
  YS02001759           JUNCTION    483.56   750.44     0  02:55        2.74         4.4       0.522
  YS02001887           JUNCTION    623.03   623.05     0  03:01        3.16        3.19       0.274
  YS02001890           JUNCTION      0.00   623.35     0  03:01           0        3.14       0.303
  YS02001898           JUNCTION      0.00   517.02     0  03:02           0        3.09       0.111
  YS02001901           JUNCTION      0.00   516.96     0  03:02           0        3.09       0.232
  YS02001904           JUNCTION      0.00   516.98     0  03:02           0        3.08       0.212
  YS02001907           JUNCTION      0.00  1057.91     0  03:01           0        6.88       0.357
  YS02001910           JUNCTION      0.00   541.86     0  03:01           0        3.81       0.314
  YS02001915           JUNCTION    347.37   541.77     0  03:01        2.22        3.85       0.169
  YS02001918           JUNCTION      0.00   274.61     0  02:52           0        1.65       0.125
  YS02001619           JUNCTION    337.96   337.96     0  03:01        2.21        2.21       0.558
  YS02001629           JUNCTION      0.00   215.54     0  02:48           0        1.56       1.885
  YS02001641           JUNCTION      0.00   453.63     0  02:48           0        4.08       0.514
  YS02001644           JUNCTION    368.39  1138.49     0  03:23        2.55        9.16       0.283
  YS02001652           JUNCTION      0.00   485.47     0  03:02           0         2.3       1.025
  YS02001655           JUNCTION      0.15   485.05     0  03:02     0.00434        2.33       1.103
  YS02001920           JUNCTION      2.87   274.56     0  02:52      0.0809        1.64       0.192
  YS02001923           JUNCTION      0.04   262.28     0  02:53     0.00106        1.54       0.053
  YS02001926           JUNCTION      0.05   194.14     0  02:53     0.00147        1.53       0.223
  YS02001929           JUNCTION    163.23   163.23     0  03:01        1.53        1.53       0.039
  YS02001658           JUNCTION      0.00   562.62     0  02:42           0        2.35       0.983
  YS02001661           JUNCTION      0.00   732.67     0  03:03           0        3.01      -0.032
  YS02001664           JUNCTION    446.68   446.68     0  03:01        2.35        3.01       0.231
  YS02001622           JUNCTION      0.00   338.22     0  03:01           0        2.19       1.471
  YS02001633           JUNCTION    373.80   453.84     0  02:49        2.63        4.14       0.778
  YS02001649           JUNCTION      0.00   964.81     0  02:50           0        5.18       0.720
  YS02001757           JUNCTION      0.00  1884.73     0  02:50           0        9.31       1.000
  YS02001895           JUNCTION      0.00   517.00     0  03:02           0        3.09       0.165
  YS02001625           JUNCTION      0.00   338.28     0  03:01           0        2.16       1.810
  YS02163301           JUNCTION      0.00   215.61     0  02:49           0        1.54       1.577
  YS02163601           JUNCTION      0.11   453.76     0  02:49      0.0031         4.1       0.732
  YS02164001           JUNCTION      0.00   453.71     0  02:49           0        4.08       0.487
  YS02001647           JUNCTION      0.00   688.39     0  02:49           0        4.22       0.682
  YSB1154              JUNCTION     43.21    43.21     0  03:01       0.127       0.128       1.144
  YSB6556              JUNCTION      0.00    41.77     0  03:01           0       0.129       0.980
  YSB1174              JUNCTION     35.94    35.94     0  03:01      0.0924      0.0931       1.403
  YSB1171              JUNCTION      0.00    73.32     0  03:01           0       0.227       2.865
  YS02006553           JUNCTION      0.00   671.84     0  03:32           0        6.12       0.258
  YS02006561           JUNCTION      0.00   969.04     0  03:00           0        8.97       0.007
  YS02006556           JUNCTION      0.00   671.94     0  03:32           0        6.12       0.184
  YS02006558           JUNCTION    532.26   969.48     0  03:00         2.9           9       0.062
  YS02001783           JUNCTION      0.00   969.16     0  03:00           0        8.97       0.028
  YS02001784           JUNCTION      1.06   970.23     0  03:00      0.0299        8.99       0.042
  YS02001786           JUNCTION      0.06   970.21     0  03:01     0.00159        8.99       0.041
  YS02001788           JUNCTION      0.07   970.25     0  03:00       0.002        8.99       0.025
  YS02001790           JUNCTION      0.15   970.51     0  03:01     0.00437        8.99       0.027
  YS02001791           JUNCTION      0.00   970.44     0  03:00           0        8.99       0.013
  YS02001793           JUNCTION      0.00   970.46     0  03:00           0        8.99       0.005
  WS02004139           JUNCTION      0.32   379.53     0  00:20     0.00905        7.01       0.549
  WSC                  OUTFALL       0.00   971.21     0  03:06           0        15.2       0.000
  3                    OUTFALL       0.00   551.57     0  02:50           0        3.16       0.000
  4                    OUTFALL       0.00   264.80     0  02:50           0       0.331       0.000
  5                    OUTFALL       0.00     0.00     0  00:00           0           0       0.000 ltr
  JK-storage           STORAGE       0.00   970.58     0  03:00           0        9.14      -2.037
  CC-storage           STORAGE       0.00  1884.37     0  02:50           0        7.94       0.820
  XR-storage           STORAGE     849.17   849.17     0  03:01        10.2        10.8      -0.003
  
  
  **********************
  Node Surcharge Summary
  **********************
  
  Surcharging occurs when water rises above the top of the highest conduit.
  ---------------------------------------------------------------------
                                               Max. Height   Min. Depth
                                   Hours       Above Crown    Below Rim
  Node                 Type      Surcharged         Meters       Meters
  ---------------------------------------------------------------------
  WS02004401           JUNCTION        0.30          0.093        1.567
  WS02004402           JUNCTION        0.33          0.097        1.643
  WS02004403           JUNCTION        0.33          0.088        1.942
  WS02004404           JUNCTION        0.46          0.142        2.638
  WS02004406           JUNCTION        0.41          0.094        2.356
  WS02004405           JUNCTION        0.44          0.123        2.677
  WS02006109           JUNCTION        1.70          0.419        1.401
  WS02006110           JUNCTION        0.78          0.182        1.668
  WS02006112           JUNCTION        0.93          0.362        1.318
  WS02006115           JUNCTION        0.09          0.031        2.219
  WS02006116           JUNCTION        0.14          0.040        2.250
  WS02006230           JUNCTION        0.44          0.269        1.301
  WS02006231           JUNCTION        0.47          0.274        1.256
  WS02006232           JUNCTION        1.69          0.379        1.101
  WS02006234           JUNCTION        0.55          0.379        0.861
  WS02006235           JUNCTION        0.88          0.289        1.001
  WS02006238           JUNCTION        1.11          0.306        1.124
  WS02006240           JUNCTION        0.48          0.304        1.086
  WS02006242           JUNCTION        0.76          0.340        0.480
  WS02006243           JUNCTION        0.35          0.216        0.554
  WS02006245           JUNCTION        0.18          0.178        0.672
  WS02006247           JUNCTION        0.13          0.127        0.633
  WS02006239           JUNCTION        0.54          0.307        0.983
  WS02006252           JUNCTION        1.40          0.191        0.909
  WS02006228           JUNCTION        1.60          0.524        1.676
  YS02001748           JUNCTION        5.05          0.920        0.270
  YS02001751           JUNCTION        5.18          0.860        0.340
  YS02001754           JUNCTION        5.31          0.862        0.288
  YS02001762           JUNCTION        5.52          1.035        0.115
  YS02001765           JUNCTION        5.49          0.983        0.117
  YS02001767           JUNCTION        5.47          0.939        0.091
  YS02001770           JUNCTION        5.46          0.887        0.033
  YS02001774           JUNCTION        5.51          0.981        0.069
  YS02001779           JUNCTION        5.30          0.680        0.000
  YS02001882           JUNCTION        1.04          0.647        0.183
  YS02001884           JUNCTION        1.08          0.681        0.189
  YS02001759           JUNCTION        5.54          1.073        0.137
  YS02001887           JUNCTION        1.16          0.761        0.189
  YS02001890           JUNCTION        1.19          0.760        0.000
  YS02001898           JUNCTION        1.00          0.539        0.201
  YS02001901           JUNCTION        1.13          0.682        0.188
  YS02001904           JUNCTION        1.10          0.642        0.208
  YS02001907           JUNCTION        1.65          0.950        0.000
  YS02001910           JUNCTION        1.23          0.786        0.314
  YS02001915           JUNCTION        1.03          0.617        0.383
  YS02001918           JUNCTION        0.79          0.422        0.388
  YS02001619           JUNCTION        5.17          0.610        0.000
  YS02001629           JUNCTION        5.18          0.470        0.000
  YS02001641           JUNCTION        5.50          0.935        0.165
  YS02001644           JUNCTION        5.50          0.920        0.000
  YS02001652           JUNCTION        5.38          1.130        0.000
  YS02001655           JUNCTION        5.19          1.200        0.000
  YS02001920           JUNCTION        0.83          0.376        0.764
  YS02001658           JUNCTION        5.07          1.300        0.000
  YS02001661           JUNCTION        0.25          1.390        0.000
  YS02001622           JUNCTION        5.20          0.592        0.028
  YS02001633           JUNCTION        5.49          0.928        0.132
  YS02001649           JUNCTION        5.52          1.050        0.000
  YS02001757           JUNCTION        5.62          1.175        0.035
  YS02001895           JUNCTION        1.02          0.567        0.183
  YS02001625           JUNCTION        5.43          0.780        0.000
  YS02163301           JUNCTION        5.46          0.895        0.135
  YS02163601           JUNCTION        5.53          0.993        0.087
  YS02164001           JUNCTION        5.49          0.923        0.177
  YS02001647           JUNCTION        5.41          0.802        0.098
  YS02006553           JUNCTION        1.71          0.970        0.220
  YS02006561           JUNCTION        0.92          0.327        0.823
  YS02006556           JUNCTION        1.44          0.894        0.456
  YS02006558           JUNCTION        1.41          0.873        0.527
  YS02001783           JUNCTION        1.63          0.722        0.878
  YS02001784           JUNCTION        1.71          0.668        0.822
  YS02001786           JUNCTION        1.64          0.510        0.920
  YS02001788           JUNCTION        1.62          0.372        1.108
  YS02001790           JUNCTION        2.79          1.157        0.000
  YS02001791           JUNCTION        2.93          0.913        1.007
  YS02001793           JUNCTION        3.36          1.250        1.350
  
  
  *********************
  Node Flooding Summary
  *********************
  
  Flooding refers to all water that overflows a node, whether it ponds or not.
  --------------------------------------------------------------------------
                                                             Total   Maximum
                                 Maximum   Time of Max       Flood    Ponded
                        Hours       Rate    Occurrence      Volume     Depth
  Node                 Flooded       LPS   days hr:min    10^6 ltr    Meters
  --------------------------------------------------------------------------
  YS02001779              2.77    402.12      0  03:29       1.389     0.000
  YS02001890              0.23    106.73      0  03:01       0.038     0.000
  YS02001907              0.66    619.69      0  03:01       0.745     0.000
  YS02001619              0.01     14.83      0  02:41       0.000     0.000
  YS02001629              0.01     28.99      0  02:41       0.000     0.000
  YS02001644              4.58   1138.26      0  03:23       7.465     0.000
  YS02001652              0.01     18.66      0  02:57       0.000     0.000
  YS02001655              0.01     16.88      0  02:57       0.000     0.000
  YS02001658              0.01      7.53      0  02:57       0.000     0.000
  YS02001661              0.01    164.35      0  02:57       0.000     0.000
  YS02001649              0.09     45.62      0  02:57       0.004     0.000
  YS02001625              1.18    318.13      0  03:01       0.564     0.000
  YS02001790              0.01    206.76      0  02:21       0.000     0.000
  JK-storage              2.51    961.11      0  03:30       4.535     0.000
  XR-storage              3.95    663.50      0  03:03       2.890     0.000
  
  
  **********************
  Storage Volume Summary
  **********************
  
  --------------------------------------------------------------------------------------------------
                         Average     Avg  Evap Exfil       Maximum     Max    Time of Max    Maximum
                          Volume    Pcnt  Pcnt  Pcnt        Volume    Pcnt     Occurrence    Outflow
  Storage Unit           1000 m3    Full  Loss  Loss       1000 m3    Full    days hr:min        LPS
  --------------------------------------------------------------------------------------------------
  JK-storage               0.190      65     0     0         0.291     100       0  02:21     599.97
  CC-storage               3.118      20     0     0         3.858      25       0  03:29     399.97
  XR-storage               0.799      86     0     0         0.926     100       0  03:03     379.98
  
  
  ***********************
  Outfall Loading Summary
  ***********************
  
  -----------------------------------------------------------
                         Flow       Avg       Max       Total
                         Freq      Flow      Flow      Volume
  Outfall Node           Pcnt       LPS       LPS    10^6 ltr
  -----------------------------------------------------------
  WSC                   99.99    603.06    971.21      15.211
  3                     69.21    233.16    551.57       3.158
  4                     28.77     59.02    264.80       0.331
  5                      0.00      0.00      0.00       0.000
  -----------------------------------------------------------
  System                49.49    895.25   1628.93      18.700
  
  
  ********************
  Link Flow Summary
  ********************
  
  -----------------------------------------------------------------------------
                                 Maximum  Time of Max   Maximum    Max/    Max/
                                  |Flow|   Occurrence   |Veloc|    Full    Full
  Link                 Type          LPS  days hr:min     m/sec    Flow   Depth
  -----------------------------------------------------------------------------
  WS02003066WSF200     CONDUIT    785.52     0  03:05      3.00    0.13    0.28
  WS02006287WS02006284 CONDUIT    610.98     0  03:02      2.31    0.28    0.37
  WS02006284WS02006280 CONDUIT    611.97     0  03:02      2.55    0.26    0.35
  WS02006280WS02006229 CONDUIT    612.09     0  03:02      4.12    0.13    0.24
  WS02006229WS02006228 CONDUIT    771.76     0  03:02      1.54    2.56    1.00
  WS02006256WS02006235 CONDUIT    166.25     0  00:01      2.58    1.76    1.00
  WS02006253WS02006251 CONDUIT    134.70     0  03:01      0.54    0.40    1.00
  WS02006252WS02006251 CONDUIT    400.43     0  06:40      3.19    1.47    1.00
  WS02006251WS02006249 CONDUIT    486.46     0  02:50      1.27    1.40    0.98
  WS02006249WS02006248 CONDUIT    353.55     0  04:00      1.16    1.94    0.95
  WS02006248WS02006247 CONDUIT    347.72     0  04:00      1.12    0.76    0.99
  WS02006247WS02006245 CONDUIT    342.10     0  07:21      1.09    2.71    1.00
  WS02006245WS02006243 CONDUIT    337.75     0  07:21      1.12    1.00    1.00
  WS02006243WS02006242 CONDUIT    335.72     0  06:41      1.01    0.72    1.00
  WS02006242WS02006240 CONDUIT    334.06     0  05:20      0.96    1.33    1.00
  WS02006240WS02006239 CONDUIT    334.02     0  05:20      1.01    1.05    1.00
  WS02006239WS02006238 CONDUIT    333.02     0  05:20      0.92    1.07    1.00
  WS02006238WS02006235 CONDUIT    331.24     0  05:20      1.25    0.74    1.00
  WS02006235WS02006234 CONDUIT    390.44     0  06:11      1.04    4.12    1.00
  WS02006234WS02006232 CONDUIT    389.06     0  06:11      1.13    0.79    1.00
  WS02006232WS02006231 CONDUIT    388.87     0  06:12      1.06    0.81    1.00
  WS02006231WS02006230 CONDUIT    387.19     0  06:12      1.32    5.87    1.00
  WS02006230WS02006229 CONDUIT    396.80     0  06:12      1.03    8.83    1.00
  WS02006228WS02006109 CONDUIT    771.64     0  03:02      1.54    3.37    1.00
  WS02006116WS02004401 CONDUIT    787.69     0  03:03      1.00    1.09    1.00
  WS02006115WS02006116 CONDUIT    787.41     0  03:03      1.00    1.01    1.00
  WS02006113WS02006111 CONDUIT    770.14     0  03:03      2.61    0.92    0.73
  WS02006112WS02006115 CONDUIT    786.94     0  03:03      1.00    0.46    1.00
  WS02006111WS02006112 CONDUIT    769.93     0  03:03      1.74    0.37    0.85
  WS02006110WS02006113 CONDUIT    772.86     0  03:02      1.67    0.70    0.87
  WS02006109WS02006110 CONDUIT    772.87     0  03:02      1.54    1.49    1.00
  WS02004411WS02004412 CONDUIT    785.07     0  03:04      1.13    1.12    0.83
  WS02004401WS02004402 CONDUIT    787.80     0  03:03      1.00    0.95    1.00
  WS02004413WS02003067 CONDUIT    784.92     0  03:05      1.38    0.34    0.68
  WS02004412WS02004413 CONDUIT    784.85     0  03:05      1.06    0.53    0.89
  WS02004410WS02004411 CONDUIT    785.61     0  03:04      1.12    1.07    0.84
  WS02004409WS02004410 CONDUIT    786.58     0  03:04      1.12    1.02    0.84
  WS02004407WS02004409 CONDUIT    787.91     0  03:03      1.61    0.28    0.60
  WS02004406WS02004407 CONDUIT    788.29     0  03:03      1.38    0.35    0.68
  WS02004405WS02004406 CONDUIT    788.19     0  03:03      1.00    1.55    1.00
  WS02004404WS02004405 CONDUIT    788.12     0  03:03      1.00    7.72    1.00
  WS02004403WS02004404 CONDUIT    787.94     0  03:03      1.00    0.57    1.00
  WS02004402WS02004403 CONDUIT    787.88     0  03:03      1.00    1.13    1.00
  WS02004139WS02001211 CONDUIT    374.29     0  00:20      0.81    0.47    0.57
  WS02004138WS02004139 CONDUIT    379.21     0  00:20      3.33    0.08    0.42
  WS02003067WS02003066 CONDUIT    785.35     0  03:05      1.49    0.25    0.47
  WS02001213WS02003059 CONDUIT    375.36     0  00:22      0.80    0.62    0.73
  WS02001212WS02001213 CONDUIT    376.83     0  00:21      1.31    0.58    0.43
  WS02001211WS02001212 CONDUIT    377.74     0  00:21      0.77    0.29    0.62
  WS02003072WS02003073 CONDUIT    969.29     0  03:06      1.75    2.09    0.49
  WS02003069WS02003072 CONDUIT    969.33     0  03:05      1.64    0.47    0.52
  WS02003060WS02003069 CONDUIT    969.15     0  03:05      1.88    0.38    0.47
  WS02003059WS02003060 CONDUIT    373.03     0  00:22      0.93    0.24    0.65
  HS02004901HS02004770 CONDUIT     32.24     0  03:01      0.09    0.12    0.50
  HS02004876HS02004881 CONDUIT    119.33     0  03:01      1.17    1.27    0.15
  HS02004870HS02004876 CONDUIT     96.14     0  03:01      0.79    0.06    0.17
  HS02004842HS02004848 CONDUIT     15.11     0  03:01      0.07    0.01    0.33
  HS02004837HS02004842 CONDUIT     16.10     0  03:03      0.41    0.01    0.34
  HS02004830HS02004837 CONDUIT     61.24     0  03:01      0.66    0.06    0.13
  HS02004824HS02004830 CONDUIT     60.79     0  03:01      0.63    0.08    0.15
  HS02004817HS02004824 CONDUIT    117.39     0  03:02      0.30    0.05    0.56
  HS02004770HS02004777 CONDUIT    159.99     0  03:01      0.45    0.29    0.51
  HS02004799HS02004480 CONDUIT    387.39     0  03:01      1.00    0.49    0.56
  HS02004792HS02004799 CONDUIT    353.07     0  03:01      1.12    0.22    0.45
  HS02004788HS02004792 CONDUIT    202.14     0  03:02      1.22    0.13    0.24
  HS02004785HS02004788 CONDUIT    156.68     0  03:02      0.85    1.18    0.26
  HS02004777HS02004785 CONDUIT    157.13     0  03:01      0.53    0.19    0.42
  HS02004480HS02004478 CONDUIT    456.76     0  03:01      1.47    1.92    0.44
  HS02004479HS02004480 CONDUIT     74.07     0  03:02      0.22    0.07    0.53
  HS02004862HS02004870 CONDUIT     73.11     0  03:01      0.77    0.08    0.14
  HS02004848HS02004852 CONDUIT     35.11     0  03:01      0.52    0.04    0.10
  HS02004856HS02004862 CONDUIT     51.23     0  03:01      0.58    0.05    0.13
  HS02004852HS02004856 CONDUIT     35.03     0  03:02      0.32    0.04    0.16
  HS02004802HS02004478 CONDUIT    160.69     0  03:04      0.54    0.14    0.45
  HS02004478WS02006287 CONDUIT    609.84     0  03:02      2.03    0.17    0.33
  HS02004817HS02004807 CONDUIT    120.81     0  03:04      0.24    0.07    0.73
  HS02004807HS02004802 CONDUIT    156.92     0  03:03      0.45    0.30    0.51
  YS02001759YS02001757 CONDUIT    750.51     0  02:55      0.96    0.53    1.00
  YS02001762YS02001759 CONDUIT    376.34     0  02:53      0.48    0.43    1.00
  YS02001765YS02001762 CONDUIT    376.26     0  02:53      0.48    0.35    1.00
  YS02001770YS02001767 CONDUIT    375.86     0  02:53      0.48    1.49    1.00
  YS02001774YS02001770 CONDUIT    401.75     0  03:29      0.51    0.26    1.00
  YS02001779YS02001774 CONDUIT    402.28     0  03:29      0.51    0.20    1.00
  YS02001649YS02001757 CONDUIT    964.72     0  02:50      1.23    0.59    1.00
  YS02001767YS02001765 CONDUIT    376.35     0  02:53      0.48    0.47    1.00
  YS02006561YS02001783 CONDUIT    969.16     0  03:00      1.93    0.50    1.00
  YS02001783YS02001784 CONDUIT    969.17     0  03:00      1.93    1.34    1.00
  YS02001784YS02001785 CONDUIT    970.16     0  03:01      1.93    2.26    1.00
  YS02001788YS02001790 CONDUIT    970.36     0  03:01      1.94    0.72    1.00
  YS02001790YS02001791 CONDUIT    970.44     0  03:00      2.27    1.06    1.00
  YS02001791YS02001793 CONDUIT    970.46     0  03:00      4.34    0.42    1.00
  YS02001910YS02001907 CONDUIT    541.83     0  03:01      0.69    0.31    1.00
  YS02001786YS02001788 CONDUIT    970.17     0  03:00      1.93    1.87    1.00
  YS02001915YS02001910 CONDUIT    541.86     0  03:01      0.69    0.27    1.00
  YS02001918YS02001915 CONDUIT    274.88     0  02:52      0.44    0.15    1.00
  YS02001923YS02001920 CONDUIT    271.69     0  02:52      0.72    0.12    1.00
  YS02001926YS02001923 CONDUIT    262.24     0  02:53      0.82    0.37    0.95
  YS02001929YS02001926 CONDUIT    194.09     0  02:53      0.87    0.09    0.86
  YS02001920YS02001918 CONDUIT    274.61     0  02:52      0.70    0.27    1.00
  YS02001629YS02163301 CONDUIT    215.61     0  02:49      0.27    0.27    1.00
  YS02001619YS02001622 CONDUIT    338.22     0  03:01      0.60    0.50    1.00
  YS02001622YS02001625 CONDUIT    338.28     0  03:01      0.43    0.18    1.00
  YS02001625YS02001629 CONDUIT    215.54     0  02:48      0.27    0.10    1.00
  YS02163301YS02001633 CONDUIT    215.62     0  02:48      0.27    0.20    1.00
  YS02163601YS02164001 CONDUIT    453.71     0  02:49      0.58    0.40    1.00
  YS02164001YS02001641 CONDUIT    453.63     0  02:48      0.58    0.62    1.00
  YS02001641YS02001644 CONDUIT    453.65     0  02:48      0.58    1.47    1.00
  YS02001647YS02001649 CONDUIT    688.25     0  02:49      0.88    0.36    1.00
  YS02006553YS02006556 CONDUIT    671.94     0  03:32      0.86    0.57    1.00
  YS02006556YS02006558 CONDUIT    671.90     0  03:32      0.86    0.53    1.00
  YSB6556YSB1171       CONDUIT     41.33     0  03:02      0.13    0.04    0.80
  YS02001907YS02006553 CONDUIT    671.84     0  03:32      0.75    0.79    1.00
  YS02006558YS02006561 CONDUIT    969.04     0  03:00      3.43    2.14    1.00
  YS02001633YS02163601 CONDUIT    453.65     0  02:49      0.58    0.48    1.00
  YS02001644YS02001647 CONDUIT    688.39     0  02:49      0.88    0.40    1.00
  YS02001745YS02001748 CONDUIT    463.12     0  02:45      1.48    0.18    0.94
  YS02001748YS02001751 CONDUIT    398.56     0  03:01      1.03    0.20    1.00
  YS02001751YS02001754 CONDUIT    398.64     0  03:01      0.84    0.19    1.00
  YS02001754YS02001757 CONDUIT    398.60     0  03:01      0.51    0.16    1.00
  YS02001882YS02001884 CONDUIT     27.68     0  02:46      0.08    0.03    1.00
  YS02001884YS02001887 CONDUIT     35.13     0  02:45      0.05    0.05    1.00
  YS02001890YS02001895 CONDUIT    517.00     0  03:02      0.66    0.24    1.00
  YS02001895YS02001898 CONDUIT    517.02     0  03:02      0.66    0.90    1.00
  YS02001898YS02001901 CONDUIT    516.96     0  03:02      0.66    0.33    1.00
  YS02001901YS02001904 CONDUIT    516.98     0  03:02      0.66    0.80    1.00
  YS02001904YS02001907 CONDUIT    516.94     0  03:02      0.66    0.18    1.00
  YS02001887YS02001890 CONDUIT    623.35     0  03:01      0.79    1.07    1.00
  YS02001652YS02001649 CONDUIT    485.47     0  03:02      0.62    0.24    1.00
  YS02001655YS02001652 CONDUIT    485.47     0  03:02      0.89    0.24    1.00
  YS02001658YS02001655 CONDUIT    484.90     0  03:02      1.18    0.21    1.00
  YS02001661YS02001658 CONDUIT    562.62     0  02:42      1.55    0.22    1.00
  YS02001664YS02001661 CONDUIT    732.67     0  03:03      1.54    0.23    0.73
  YSB1154YSB6556       CONDUIT     41.77     0  03:01      0.19    0.08    0.69
  YSB1174YSB1171       CONDUIT     34.49     0  03:01      0.10    0.05    0.81
  YSB1171HS02004479    CONDUIT     72.19     0  03:02      0.54    0.05    0.65
  HS02004881HS02006253 CONDUIT    131.62     0  03:01      2.13    0.03    0.33
  YS02001793JiankangQianchi CONDUIT    970.58     0  03:00     11.53    0.08    1.00
  YS02001757CaochengTiaoxuchi CONDUIT   1884.37     0  02:50      2.59    0.83    1.00
  WSF200WS02003060     CONDUIT    786.31     0  03:05      2.03    0.17    0.38
  1                    CONDUIT    971.21     0  03:06      3.30    0.34    0.40
  2                    CONDUIT    264.80     0  02:50      6.25    0.63    0.58
  3                    CONDUIT    551.57     0  02:50      9.95    0.88    0.73
  4                    CONDUIT      0.00     0  00:00      0.00    0.00    0.00
  CC-Pump-1            PUMP       200.00     0  04:00              1.00
  CC-Pump-2            PUMP       200.00     0  02:20              1.00
  JK-Pump-1            PUMP       300.00     0  00:00              1.00
  JK-Pump-2            PUMP       300.00     0  02:50              1.00
  XR-Pump-1            PUMP        95.00     0  00:00              1.00
  XR-Pump-2            PUMP        95.00     0  00:00              1.00
  XR-Pump-3            PUMP        95.00     0  00:00              1.00
  XR-Pump-4            PUMP        95.00     0  00:20              1.00
  
  
  ***************************
  Flow Classification Summary
  ***************************
  
  -------------------------------------------------------------------------------------
                      Adjusted    ---------- Fraction of Time in Flow Class ---------- 
                       /Actual         Up    Down  Sub   Sup   Up    Down  Norm  Inlet 
  Conduit               Length    Dry  Dry   Dry   Crit  Crit  Crit  Crit  Ltd   Ctrl  
  -------------------------------------------------------------------------------------
  WS02003066WSF200        1.00   0.05  0.01  0.00  0.00  0.94  0.00  0.00  0.65  0.00
  WS02006287WS02006284    1.00   0.04  0.01  0.00  0.61  0.34  0.00  0.00  0.67  0.00
  WS02006284WS02006280    1.00   0.04  0.00  0.00  0.00  0.00  0.00  0.96  0.00  0.00
  WS02006280WS02006229    1.00   0.05  0.00  0.00  0.00  0.00  0.00  0.95  0.00  0.00
  WS02006229WS02006228    1.00   0.00  0.00  0.00  0.99  0.00  0.00  0.01  0.00  0.00
  WS02006256WS02006235    1.00   0.00  0.00  0.00  1.00  0.00  0.00  0.00  0.00  0.00
  WS02006253WS02006251    1.00   0.03  0.01  0.00  0.96  0.00  0.00  0.00  0.00  0.00
  WS02006252WS02006251    1.00   0.08  0.00  0.00  0.00  0.00  0.92  0.00  0.00  0.00
  WS02006251WS02006249    1.00   0.00  0.00  0.00  1.00  0.00  0.00  0.00  0.25  0.00
  WS02006249WS02006248    1.00   0.00  0.02  0.00  0.91  0.00  0.07  0.00  0.00  0.00
  WS02006248WS02006247    1.00   0.02  0.00  0.00  0.98  0.00  0.00  0.00  0.14  0.00
  WS02006247WS02006245    1.00   0.02  0.00  0.00  0.98  0.00  0.00  0.00  0.00  0.00
  WS02006245WS02006243    1.00   0.01  0.00  0.00  0.95  0.00  0.00  0.04  0.01  0.00
  WS02006243WS02006242    1.00   0.01  0.00  0.00  0.99  0.00  0.00  0.00  0.25  0.00
  WS02006242WS02006240    1.00   0.00  0.00  0.00  1.00  0.00  0.00  0.00  0.00  0.00
  WS02006240WS02006239    1.00   0.00  0.00  0.00  0.96  0.00  0.00  0.04  0.01  0.00
  WS02006239WS02006238    1.00   0.00  0.00  0.00  1.00  0.00  0.00  0.00  0.10  0.00
  WS02006238WS02006235    1.00   0.00  0.00  0.00  1.00  0.00  0.00  0.00  0.00  0.00
  WS02006235WS02006234    1.00   0.00  0.00  0.00  0.96  0.00  0.04  0.00  0.00  0.00
  WS02006234WS02006232    1.00   0.00  0.00  0.00  1.00  0.00  0.00  0.00  0.06  0.00
  WS02006232WS02006231    1.00   0.00  0.00  0.00  0.99  0.00  0.00  0.00  0.00  0.00
  WS02006231WS02006230    1.00   0.00  0.00  0.00  0.58  0.00  0.42  0.00  0.00  0.00
  WS02006230WS02006229    1.00   0.00  0.00  0.00  0.99  0.00  0.00  0.01  0.00  0.00
  WS02006228WS02006109    1.00   0.00  0.00  0.00  1.00  0.00  0.00  0.00  0.00  0.00
  WS02006116WS02004401    1.00   0.03  0.00  0.00  0.97  0.00  0.00  0.00  0.00  0.00
  WS02006115WS02006116    1.00   0.03  0.00  0.00  0.97  0.00  0.00  0.01  0.00  0.00
  WS02006113WS02006111    1.00   0.02  0.00  0.00  0.03  0.95  0.00  0.00  0.12  0.00
  WS02006112WS02006115    1.00   0.02  0.00  0.00  0.97  0.00  0.00  0.00  0.00  0.00
  WS02006111WS02006112    1.00   0.02  0.00  0.00  0.98  0.00  0.00  0.00  0.92  0.00
  WS02006110WS02006113    1.00   0.01  0.01  0.00  0.98  0.00  0.00  0.00  0.00  0.00
  WS02006109WS02006110    1.00   0.00  0.01  0.00  0.98  0.00  0.01  0.00  0.00  0.00
  WS02004411WS02004412    1.00   0.04  0.00  0.00  0.96  0.00  0.00  0.00  0.00  0.00
  WS02004401WS02004402    1.00   0.03  0.00  0.00  0.97  0.00  0.00  0.00  0.00  0.00
  WS02004413WS02003067    1.00   0.04  0.01  0.00  0.00  0.00  0.95  0.00  0.00  0.00
  WS02004412WS02004413    1.00   0.04  0.00  0.00  0.96  0.00  0.00  0.00  0.03  0.00
  WS02004410WS02004411    1.00   0.04  0.00  0.00  0.96  0.00  0.00  0.00  0.04  0.00
  WS02004409WS02004410    1.00   0.04  0.00  0.00  0.96  0.00  0.00  0.00  0.03  0.00
  WS02004407WS02004409    1.00   0.04  0.00  0.00  0.96  0.00  0.00  0.00  0.89  0.00
  WS02004406WS02004407    1.00   0.00  0.04  0.00  0.96  0.00  0.00  0.00  0.00  0.00
  WS02004405WS02004406    1.00   0.00  0.00  0.00  1.00  0.00  0.00  0.00  0.01  0.00
  WS02004404WS02004405    1.00   0.00  0.00  0.00  1.00  0.00  0.00  0.00  0.00  0.00
  WS02004403WS02004404    1.00   0.00  0.03  0.00  0.97  0.00  0.00  0.00  0.01  0.00
  WS02004402WS02004403    1.00   0.03  0.00  0.00  0.97  0.00  0.00  0.00  0.00  0.00
  WS02004139WS02001211    1.00   0.00  0.00  0.00  1.00  0.00  0.00  0.00  0.00  0.00
  WS02004138WS02004139    1.00   0.00  0.00  0.00  0.99  0.01  0.00  0.00  1.00  0.00
  WS02003067WS02003066    1.00   0.05  0.01  0.00  0.94  0.00  0.00  0.00  0.00  0.00
  WS02001213WS02003059    1.00   0.00  0.00  0.00  0.99  0.00  0.00  0.00  0.00  0.00
  WS02001212WS02001213    1.00   0.00  0.00  0.00  0.88  0.00  0.12  0.00  0.00  0.00
  WS02001211WS02001212    1.00   0.00  0.00  0.00  1.00  0.00  0.00  0.00  0.00  0.00
  WS02003072WS02003073    1.00   0.00  0.00  0.00  0.00  0.00  0.00  1.00  0.00  0.00
  WS02003069WS02003072    1.00   0.00  0.00  0.00  0.99  0.01  0.00  0.00  0.22  0.00
  WS02003060WS02003069    1.00   0.00  0.00  0.00  0.98  0.02  0.00  0.00  0.03  0.00
  WS02003059WS02003060    1.00   0.00  0.00  0.00  1.00  0.00  0.00  0.00  0.01  0.00
  HS02004901HS02004770    1.00   0.04  0.00  0.00  0.96  0.00  0.00  0.00  0.01  0.00
  HS02004876HS02004881    1.00   0.02  0.00  0.00  0.87  0.11  0.00  0.00  0.00  0.00
  HS02004870HS02004876    1.00   0.00  0.00  0.00  0.99  0.00  0.00  0.00  0.95  0.00
  HS02004842HS02004848    1.00   0.00  0.04  0.00  0.96  0.00  0.00  0.00  0.58  0.00
  HS02004837HS02004842    1.00   0.00  0.00  0.00  0.99  0.01  0.00  0.00  0.11  0.00
  HS02004830HS02004837    1.00   0.00  0.00  0.00  1.00  0.00  0.00  0.00  0.99  0.00
  HS02004824HS02004830    1.00   0.00  0.00  0.00  1.00  0.00  0.00  0.00  0.01  0.00
  HS02004817HS02004824    1.00   0.00  0.00  0.00  1.00  0.00  0.00  0.00  0.98  0.00
  HS02004770HS02004777    1.00   0.00  0.04  0.00  0.96  0.00  0.00  0.00  0.04  0.00
  HS02004799HS02004480    1.00   0.00  0.02  0.00  0.95  0.00  0.02  0.00  0.00  0.00
  HS02004792HS02004799    1.00   0.00  0.00  0.00  0.99  0.01  0.00  0.00  0.98  0.00
  HS02004788HS02004792    1.00   0.00  0.00  0.00  0.99  0.01  0.00  0.00  0.98  0.00
  HS02004785HS02004788    1.00   0.00  0.00  0.00  1.00  0.00  0.00  0.00  0.00  0.00
  HS02004777HS02004785    1.00   0.00  0.00  0.00  1.00  0.00  0.00  0.00  0.15  0.00
  HS02004480HS02004478    1.00   0.04  0.00  0.00  0.69  0.00  0.00  0.27  0.00  0.00
  HS02004479HS02004480    1.00   0.03  0.00  0.00  0.97  0.00  0.00  0.00  0.13  0.00
  HS02004862HS02004870    1.00   0.00  0.00  0.00  1.00  0.00  0.00  0.00  0.06  0.00
  HS02004848HS02004852    1.00   0.04  0.00  0.00  0.96  0.00  0.00  0.00  0.64  0.00
  HS02004856HS02004862    1.00   0.00  0.06  0.00  0.94  0.00  0.00  0.00  0.79  0.00
  HS02004852HS02004856    1.00   0.04  0.00  0.00  0.95  0.00  0.00  0.00  0.81  0.00
  HS02004802HS02004478    1.00   0.04  0.00  0.00  0.95  0.00  0.00  0.00  0.03  0.00
  HS02004478WS02006287    1.00   0.05  0.00  0.00  0.75  0.20  0.00  0.00  0.66  0.00
  HS02004817HS02004807    1.00   0.00  0.04  0.00  0.96  0.00  0.00  0.00  0.01  0.00
  HS02004807HS02004802    1.00   0.04  0.00  0.00  0.95  0.00  0.00  0.00  0.00  0.00
  YS02001759YS02001757    1.00   0.00  0.00  0.00  1.00  0.00  0.00  0.00  0.17  0.00
  YS02001762YS02001759    1.00   0.00  0.00  0.00  1.00  0.00  0.00  0.00  0.04  0.00
  YS02001765YS02001762    1.00   0.00  0.00  0.00  1.00  0.00  0.00  0.00  0.17  0.00
  YS02001770YS02001767    1.00   0.00  0.00  0.00  1.00  0.00  0.00  0.00  0.00  0.00
  YS02001774YS02001770    1.00   0.00  0.04  0.00  0.95  0.00  0.00  0.00  0.04  0.00
  YS02001779YS02001774    1.00   0.00  0.00  0.00  1.00  0.00  0.00  0.00  0.22  0.00
  YS02001649YS02001757    1.00   0.00  0.00  0.00  1.00  0.00  0.00  0.00  0.17  0.00
  YS02001767YS02001765    1.00   0.00  0.00  0.00  1.00  0.00  0.00  0.00  0.01  0.00
  YS02006561YS02001783    1.00   0.06  0.00  0.00  0.46  0.48  0.00  0.00  0.55  0.00
  YS02001783YS02001784    1.00   0.00  0.06  0.00  0.94  0.00  0.00  0.00  0.01  0.00
  YS02001784YS02001785    1.00   0.00  0.00  0.00  1.00  0.00  0.00  0.00  0.21  0.00
  YS02001788YS02001790    1.00   0.00  0.00  0.00  0.59  0.41  0.00  0.00  0.50  0.00
  YS02001790YS02001791    1.00   0.00  0.00  0.00  0.58  0.42  0.00  0.00  0.32  0.00
  YS02001791YS02001793    1.00   0.00  0.00  0.00  0.60  0.40  0.00  0.00  0.02  0.00
  YS02001910YS02001907    1.00   0.00  0.00  0.00  0.97  0.00  0.00  0.02  0.13  0.00
  YS02001786YS02001788    1.00   0.00  0.00  0.00  0.54  0.46  0.00  0.00  0.00  0.00
  YS02001915YS02001910    1.00   0.00  0.00  0.00  0.99  0.01  0.00  0.00  0.19  0.00
  YS02001918YS02001915    1.00   0.00  0.01  0.00  0.98  0.01  0.00  0.00  0.56  0.00
  YS02001923YS02001920    1.00   0.00  0.00  0.00  1.00  0.00  0.00  0.00  0.82  0.00
  YS02001926YS02001923    1.00   0.00  0.03  0.00  0.18  0.00  0.79  0.00  0.00  0.00
  YS02001929YS02001926    1.00   0.00  0.04  0.00  0.96  0.00  0.00  0.00  0.75  0.00
  YS02001920YS02001918    1.00   0.00  0.01  0.00  0.99  0.00  0.00  0.00  0.00  0.00
  YS02001629YS02163301    1.00   0.05  0.00  0.00  0.95  0.00  0.00  0.00  0.00  0.00
  YS02001619YS02001622    1.00   0.04  0.00  0.00  0.96  0.00  0.00  0.00  0.00  0.00
  YS02001622YS02001625    1.00   0.04  0.00  0.00  0.96  0.00  0.00  0.00  0.08  0.00
  YS02001625YS02001629    1.00   0.04  0.02  0.00  0.93  0.00  0.01  0.00  0.00  0.00
  YS02163301YS02001633    1.00   0.00  0.05  0.00  0.95  0.00  0.00  0.00  0.00  0.00
  YS02163601YS02164001    1.00   0.00  0.04  0.00  0.96  0.00  0.00  0.00  0.00  0.00
  YS02164001YS02001641    1.00   0.01  0.03  0.00  0.96  0.00  0.00  0.00  0.06  0.00
  YS02001641YS02001644    1.00   0.00  0.01  0.00  0.99  0.00  0.00  0.00  0.00  0.00
  YS02001647YS02001649    1.00   0.00  0.06  0.00  0.94  0.00  0.00  0.00  0.01  0.00
  YS02006553YS02006556    1.00   0.01  0.00  0.00  0.99  0.00  0.00  0.00  0.03  0.00
  YS02006556YS02006558    1.00   0.00  0.00  0.00  1.00  0.00  0.00  0.00  0.00  0.00
  YSB6556YSB1171          1.00   0.03  0.01  0.00  0.96  0.00  0.00  0.00  0.00  0.00
  YS02001907YS02006553    1.00   0.00  0.02  0.00  0.98  0.00  0.00  0.00  0.00  0.00
  YS02006558YS02006561    1.00   0.06  0.00  0.00  0.22  0.72  0.00  0.00  0.45  0.00
  YS02001633YS02163601    1.00   0.00  0.01  0.00  0.99  0.00  0.00  0.00  0.16  0.00
  YS02001644YS02001647    1.00   0.00  0.06  0.00  0.94  0.00  0.00  0.00  0.00  0.00
  YS02001745YS02001748    1.00   0.00  0.00  0.00  0.90  0.01  0.00  0.09  0.04  0.00
  YS02001748YS02001751    1.00   0.00  0.00  0.00  0.98  0.02  0.00  0.00  0.15  0.00
  YS02001751YS02001754    1.00   0.00  0.00  0.00  0.94  0.00  0.00  0.06  0.02  0.00
  YS02001754YS02001757    1.00   0.00  0.00  0.00  0.99  0.01  0.00  0.00  0.21  0.00
  YS02001882YS02001884    1.00   0.05  0.00  0.00  0.95  0.00  0.00  0.00  0.00  0.00
  YS02001884YS02001887    1.00   0.03  0.01  0.00  0.96  0.00  0.00  0.00  0.00  0.00
  YS02001890YS02001895    1.00   0.00  0.05  0.00  0.95  0.00  0.00  0.00  0.00  0.00
  YS02001895YS02001898    1.00   0.05  0.00  0.00  0.94  0.00  0.01  0.00  0.00  0.00
  YS02001898YS02001901    1.00   0.05  0.00  0.00  0.95  0.00  0.00  0.00  0.03  0.00
  YS02001901YS02001904    1.00   0.05  0.00  0.00  0.95  0.00  0.00  0.00  0.00  0.00
  YS02001904YS02001907    1.00   0.00  0.05  0.00  0.95  0.00  0.00  0.00  0.00  0.00
  YS02001887YS02001890    1.00   0.00  0.00  0.00  0.97  0.00  0.02  0.00  0.00  0.00
  YS02001652YS02001649    1.00   0.00  0.00  0.00  1.00  0.00  0.00  0.00  0.19  0.00
  YS02001655YS02001652    1.00   0.00  0.00  0.00  0.94  0.00  0.00  0.06  0.03  0.00
  YS02001658YS02001655    1.00   0.00  0.05  0.00  0.93  0.03  0.00  0.00  0.13  0.00
  YS02001661YS02001658    1.00   0.05  0.00  0.00  0.90  0.05  0.00  0.00  0.09  0.00
  YS02001664YS02001661    1.00   0.04  0.00  0.00  0.90  0.06  0.00  0.00  0.22  0.00
  YSB1154YSB6556          1.00   0.04  0.00  0.00  0.96  0.00  0.00  0.00  0.02  0.00
  YSB1174YSB1171          1.00   0.03  0.01  0.00  0.96  0.00  0.00  0.00  0.00  0.00
  YSB1171HS02004479       1.00   0.03  0.00  0.00  0.97  0.00  0.00  0.00  0.11  0.00
  HS02004881HS02006253    1.00   0.03  0.00  0.00  0.76  0.03  0.00  0.18  0.59  0.00
  YS02001793JiankangQianchi    1.00   0.00  0.00  0.00  0.82  0.18  0.00  0.00  0.34  0.00
  YS02001757CaochengTiaoxuchi    1.00   0.00  0.07  0.00  0.93  0.00  0.00  0.00  0.00  0.00
  WSF200WS02003060        1.00   0.00  0.05  0.00  0.74  0.21  0.00  0.00  0.36  0.00
  1                       1.00   0.00  0.00  0.00  0.00  1.00  0.00  0.00  0.29  0.00
  2                       1.00   0.71  0.00  0.00  0.00  0.29  0.00  0.00  0.08  0.00
  3                       1.00   0.31  0.00  0.00  0.00  0.69  0.00  0.00  0.50  0.00
  4                       1.00   1.00  0.00  0.00  0.00  0.00  0.00  0.00  0.00  0.00
  
  
  *************************
  Conduit Surcharge Summary
  *************************
  
  ----------------------------------------------------------------------------
                                                           Hours        Hours 
                         --------- Hours Full --------   Above Full   Capacity
  Conduit                Both Ends  Upstream  Dnstream   Normal Flow   Limited
  ----------------------------------------------------------------------------
  WS02006229WS02006228        1.60      1.83      1.60      4.00         1.60
  WS02006256WS02006235        5.58      5.58      7.04      2.23         0.01
  WS02006253WS02006251        0.04      0.04      0.09      0.01         0.01
  WS02006252WS02006251        0.50      0.50      1.40      1.17         0.01
  WS02006251WS02006249        0.01      0.05      0.01      0.60         0.01
  WS02006249WS02006248        0.01      0.01      0.01      4.21         0.01
  WS02006248WS02006247        0.01      0.01      0.13      0.01         0.01
  WS02006247WS02006245        0.18      0.25      0.18      4.75         0.18
  WS02006245WS02006243        0.27      0.27      0.35      0.01         0.01
  WS02006243WS02006242        0.37      0.37      0.76      0.01         0.01
  WS02006242WS02006240        0.47      0.47      1.12      1.23         0.01
  WS02006240WS02006239        0.50      0.50      0.54      0.08         0.01
  WS02006239WS02006238        0.97      0.97      1.11      0.10         0.01
  WS02006238WS02006235        0.99      0.99      1.46      0.01         0.01
  WS02006235WS02006234        0.55      0.55      0.88      5.56         0.01
  WS02006234WS02006232        0.60      0.60      1.69      0.01         0.01
  WS02006232WS02006231        0.47      0.47      1.69      0.01         0.01
  WS02006231WS02006230        0.44      0.44      0.49      5.66         0.01
  WS02006230WS02006229        2.53      3.67      2.53      5.78         2.53
  WS02006228WS02006109        1.70      2.23      1.70      5.02         1.70
  WS02006116WS02004401        0.30      0.30      0.30      0.24         0.24
  WS02006115WS02006116        0.13      0.13      0.14      0.04         0.05
  WS02006112WS02006115        0.09      0.09      0.93      0.01         0.01
  WS02006111WS02006112        0.01      0.01      4.31      0.01         0.01
  WS02006110WS02006113        0.01      0.01      2.06      0.01         0.01
  WS02006109WS02006110        0.77      0.77      2.23      0.78         0.01
  WS02004411WS02004412        0.01      0.01      0.01      0.28         0.01
  WS02004401WS02004402        0.30      0.30      0.33      0.01         0.01
  WS02004410WS02004411        0.01      0.01      0.01      0.21         0.01
  WS02004409WS02004410        0.01      0.01      0.01      0.06         0.01
  WS02004406WS02004407        0.01      0.01      0.41      0.01         0.01
  WS02004405WS02004406        0.41      0.44      0.41      0.87         0.41
  WS02004404WS02004405        0.44      0.46      0.44      5.88         0.44
  WS02004403WS02004404        0.33      0.33      0.46      0.01         0.01
  WS02004402WS02004403        0.33      0.33      0.33      0.29         0.29
  WS02003072WS02003073        0.01      0.01      0.01      5.22         0.01
  HS02004876HS02004881        0.01      0.01      0.01      0.17         0.01
  HS02004785HS02004788        0.01      0.01      0.01      0.10         0.01
  HS02004480HS02004478        0.01      0.01      0.01      0.52         0.01
  YS02001759YS02001757        5.54      5.54      5.62      0.01         0.01
  YS02001762YS02001759        5.52      5.52      5.54      0.01         0.01
  YS02001765YS02001762        5.49      5.49      5.52      0.01         0.01
  YS02001770YS02001767        5.47      5.47      5.47      0.29         0.80
  YS02001774YS02001770        5.46      5.46      5.51      0.01         0.01
  YS02001779YS02001774        5.30      5.30      5.51      0.01         0.01
  YS02001649YS02001757        5.52      5.52      5.62      0.01         0.01
  YS02001767YS02001765        5.47      5.47      5.49      0.01         0.01
  YS02006561YS02001783        0.92      0.92      1.63      0.01         0.01
  YS02001783YS02001784        1.63      1.63      1.71      1.28         1.26
  YS02001784YS02001785        1.64      1.71      1.64      2.23         1.64
  YS02001788YS02001790        1.62      1.62      2.79      0.01         0.01
  YS02001790YS02001791        2.79      2.79      2.93      0.76         0.75
  YS02001791YS02001793        2.93      2.93      3.45      0.01         0.01
  YS02001910YS02001907        1.23      1.23      1.65      0.01         0.01
  YS02001786YS02001788        1.62      1.64      1.62      1.84         1.61
  YS02001915YS02001910        1.03      1.03      1.23      0.01         0.01
  YS02001918YS02001915        0.79      0.79      1.03      0.01         0.01
  YS02001923YS02001920        0.63      0.63      0.83      0.01         0.01
  YS02001920YS02001918        0.79      0.79      0.83      0.01         0.01
  YS02001629YS02163301        5.46      5.46      5.46      0.01         0.01
  YS02001619YS02001622        5.17      5.17      5.20      0.01         0.01
  YS02001622YS02001625        5.20      5.20      5.43      0.01         0.01
  YS02001625YS02001629        5.18      5.18      5.43      0.01         0.01
  YS02163301YS02001633        5.46      5.46      5.49      0.01         0.01
  YS02163601YS02164001        5.49      5.49      5.53      0.01         0.01
  YS02164001YS02001641        5.49      5.49      5.50      0.01         0.02
  YS02001641YS02001644        5.50      5.50      5.50      1.47         1.47
  YS02001647YS02001649        5.41      5.41      5.52      0.01         0.01
  YS02006553YS02006556        1.44      1.44      1.71      0.01         0.01
  YS02006556YS02006558        1.56      1.56      1.78      0.01         0.01
  YS02001907YS02006553        2.24      2.24      2.45      0.01         0.01
  YS02006558YS02006561        1.13      1.41      1.13      2.09         1.13
  YS02001633YS02163601        5.49      5.49      5.53      0.01         0.01
  YS02001644YS02001647        5.41      5.41      5.50      0.01         0.01
  YS02001745YS02001748        0.01      0.01      5.05      0.01         0.01
  YS02001748YS02001751        5.08      5.08      5.18      0.01         0.01
  YS02001751YS02001754        5.18      5.18      5.31      0.01         0.01
  YS02001754YS02001757        5.40      5.40      5.62      0.01         0.01
  YS02001882YS02001884        1.04      1.04      1.08      0.01         0.01
  YS02001884YS02001887        1.13      1.13      1.16      0.01         0.01
  YS02001890YS02001895        1.02      1.02      1.25      0.01         0.01
  YS02001895YS02001898        1.00      1.00      1.02      0.01         0.01
  YS02001898YS02001901        1.03      1.03      1.13      0.01         0.01
  YS02001901YS02001904        1.10      1.10      1.13      0.01         0.01
  YS02001904YS02001907        1.10      1.10      1.74      0.01         0.01
  YS02001887YS02001890        1.19      1.19      1.22      0.07         0.01
  YS02001652YS02001649        5.42      5.42      5.52      0.01         0.01
  YS02001655YS02001652        5.19      5.19      5.38      0.01         0.01
  YS02001658YS02001655        5.07      5.07      5.19      0.01         0.01
  YS02001661YS02001658        0.24      0.24      5.07      0.01         0.01
  YS02001664YS02001661        0.01      0.01      1.23      0.01         0.01
  YS02001793JiankangQianchi        3.36      3.36      4.59      0.01         0.01
  YS02001757CaochengTiaoxuchi        4.86      4.86      5.62      0.01         0.01
  
  
  ***************
  Pumping Summary
  ***************
  
  ---------------------------------------------------------------------------------------------------------
                                                  Min       Avg       Max     Total     Power    % Time Off
                        Percent   Number of      Flow      Flow      Flow    Volume     Usage    Pump Curve
  Pump                 Utilized   Start-Ups       LPS       LPS       LPS  10^6 ltr     Kw-hr    Low   High
  ---------------------------------------------------------------------------------------------------------
  CC-Pump-1               48.92           7      0.00    119.57    200.00     1.620      1.67    0.0    0.0
  CC-Pump-2               65.96           4      0.00    139.14    200.00     2.520      3.09    0.0    7.9
  JK-Pump-1               55.32           5      0.00    180.42    300.00     2.245     18.89    0.0    0.0
  JK-Pump-2               55.31           5      0.00    190.65    300.00     2.362     20.74    0.0    0.0
  XR-Pump-1               89.35           5      0.00     69.99     95.00     1.881     22.92    0.0    0.0
  XR-Pump-2               82.97           7      0.00     73.73     95.00     1.767     18.92    0.0    0.0
  XR-Pump-3               91.48           7      0.00     70.46     95.00     1.853     21.50    0.0    0.0
  XR-Pump-4               72.33           6      0.00     71.51     95.00     1.510     13.39    0.0    0.0
  

  Analysis begun on:  Wed Dec 22 11:04:19 2021
  Analysis ended on:  Wed Dec 22 11:04:23 2021
  Total elapsed time: 00:00:04