
  EPA STORM WATER MANAGEMENT MODEL - VERSION 5.1 (Build 5.3.0.dev0)
  --------------------------------------------------------------

  WARNING 04: minimum elevation drop used for Conduit WS02004404WS02004405
  WARNING 03: negative offset ignored for Link YS02001904YS02001907
  
  *********************************************************
  NOTE: The summary statistics displayed in this report are
  based on results found at every computational time step,  
  not just on results from each reporting time step.
  *********************************************************
  
  ****************
  Analysis Options
  ****************
  Flow Units ............... LPS
  Process Models:
    Rainfall/Runoff ........ YES
    RDII ................... NO
    Snowmelt ............... NO
    Groundwater ............ NO
    Flow Routing ........... YES
    Ponding Allowed ........ NO
    Water Quality .......... NO
  Infiltration Method ...... HORTON
  Flow Routing Method ...... DYNWAVE
  Surcharge Method ......... EXTRAN
  Starting Date ............ 08/28/2015 08:00:00
  Ending Date .............. 08/28/2015 15:50:00
  Antecedent Dry Days ...... 8.0
  Report Time Step ......... 00:01:00
  Wet Time Step ............ 00:01:00
  Dry Time Step ............ 00:01:00
  Routing Time Step ........ 5.00 sec
  Variable Time Step ....... YES
  Maximum Trials ........... 8
  Number of Threads ........ 4
  Head Tolerance ........... 0.001500 m
  
  
  **************************        Volume         Depth
  Runoff Quantity Continuity     hectare-m            mm
  **************************     ---------       -------
  Total Precipitation ......         6.144        13.452
  Evaporation Loss .........         0.000         0.000
  Infiltration Loss ........         1.572         3.442
  Surface Runoff ...........         3.480         7.619
  Final Storage ............         1.093         2.393
  Continuity Error (%) .....        -0.016
  
  
  **************************        Volume        Volume
  Flow Routing Continuity        hectare-m      10^6 ltr
  **************************     ---------     ---------
  Dry Weather Inflow .......         0.616         6.165
  Wet Weather Inflow .......         3.478        34.785
  Groundwater Inflow .......         0.000         0.000
  RDII Inflow ..............         0.000         0.000
  External Inflow ..........         0.102         1.024
  External Outflow .........         1.630        16.301
  Flooding Loss ............         2.025        20.251
  Evaporation Loss .........         0.000         0.000
  Exfiltration Loss ........         0.000         0.000
  Initial Stored Volume ....         0.076         0.761
  Final Stored Volume ......         0.647         6.472
  Continuity Error (%) .....        -0.681
  
  
  *************************
  Highest Continuity Errors
  *************************
  Node HS02004842 (15.28%)
  Node YS02001884 (10.33%)
  Node JK-storage (-2.87%)
  Node YSB1171 (2.79%)
  Node HS02004817 (2.78%)
  
  
  ***************************
  Time-Step Critical Elements
  ***************************
  Link WS02006252WS02006251 (48.26%)
  Link 3 (33.50%)
  Link WS02006280WS02006229 (8.73%)
  Link WS02006238WS02006235 (2.49%)
  
  
  ********************************
  Highest Flow Instability Indexes
  ********************************
  Link WS02006113WS02006111 (51)
  Link YS02163301YS02001633 (46)
  Link YS02163601YS02164001 (45)
  Link YS02001629YS02163301 (45)
  Link YS02001619YS02001622 (45)
  
  
  *************************
  Routing Time Step Summary
  *************************
  Minimum Time Step           :     0.50 sec
  Average Time Step           :     0.99 sec
  Maximum Time Step           :     5.00 sec
  Percent in Steady State     :    -0.00
  Average Iterations per Step :     4.67
  Percent Not Converging      :    21.55
  
  
  ***************************
  Subcatchment Runoff Summary
  ***************************
  
  ------------------------------------------------------------------------------------------------------------------------------
                            Total      Total      Total      Total     Imperv       Perv      Total       Total     Peak  Runoff
                           Precip      Runon       Evap      Infil     Runoff     Runoff     Runoff      Runoff   Runoff   Coeff
  Subcatchment                 mm         mm         mm         mm         mm         mm         mm    10^6 ltr      LPS
  ------------------------------------------------------------------------------------------------------------------------------
  sub0                      13.45       0.00       0.00       0.89      11.25       0.05      11.30        0.01     3.67   0.840
  sub1                      13.45       0.00       0.00       1.45      10.71       0.03      10.74        0.07    24.31   0.799
  sub2                      13.45       0.00       0.00       4.95       7.56       0.02       7.58        0.07    22.93   0.564
  sub3                      13.45       0.00       0.00       4.96       7.52       0.02       7.54        0.17    51.30   0.560
  sub4                      13.45       0.00       0.00       1.46      10.54       0.02      10.56        0.22    61.94   0.785
  sub5                      13.45       0.00       0.00       0.91      11.19       0.03      11.22        0.13    43.21   0.834
  sub7                      13.45       0.00       0.00       1.17      10.98       0.04      11.03        0.04    13.69   0.820
  sub8                      13.45       0.00       0.00       1.17      10.97       0.04      11.01        0.07    25.15   0.819
  sub9                      13.45       0.00       0.00       1.17      10.97       0.04      11.01        0.05    18.81   0.818
  sub10                     13.45       0.00       0.00       1.04      11.08       0.03      11.11        0.12    42.29   0.826
  sub11                     13.45       0.00       0.00       1.04      11.10       0.04      11.14        0.13    46.68   0.828
  sub12                     13.45       0.00       0.00       1.69      10.51       0.06      10.58        0.09    35.94   0.786
  sub14                     13.45       0.00       0.00       1.17      10.97       0.04      11.01        0.10    37.02   0.818
  sub15                     13.45       0.00       0.00       4.00       8.43       0.04       8.47        0.15    51.03   0.630
  sub16                     13.45       0.00       0.00       4.38       8.09       0.06       8.15        0.09    32.58   0.606
  sub17                     13.45       0.00       0.00       4.25       8.21       0.06       8.27        0.07    26.73   0.615
  sub22                     13.45       0.00       0.00       5.74       6.88       0.04       6.92        0.44   159.06   0.514
  sub23                     13.45       0.00       0.00       4.93       7.60       0.05       7.65        0.36   133.95   0.569
  sub60                     13.45       0.00       0.00       1.61       8.73       0.00       8.74        2.65   387.96   0.649
  sub61                     13.45       0.00       0.00       2.28       8.88       0.00       8.88        2.74   483.52   0.660
  sub62                     13.45       0.00       0.00       1.07       9.65       0.00       9.66        2.97   496.42   0.718
  sub63                     13.45       0.00       0.00       3.90       7.77       0.00       7.77        2.35   446.68   0.578
  sub64                     13.45       0.00       0.00       2.01       8.38       0.00       8.38        2.55   368.35   0.623
  sub65                     13.45       0.00       0.00       1.75       8.52       0.00       8.52        2.62   373.60   0.634
  sub66                     13.45       0.00       0.00       3.90       7.19       0.00       7.19        2.21   337.96   0.535
  sub67                     13.45       0.00       0.00       1.07      10.19       0.01      10.19        3.15   622.58   0.758
  sub68                     13.45       0.00       0.00       1.88       9.34       0.01       9.34        2.87   531.38   0.694
  sub69                     13.45       0.00       0.00       2.01       9.68       0.01       9.69        2.26   503.32   0.720
  sub70                     13.45       9.89       0.00       7.67      12.93       0.26      13.20        3.02   423.72   0.565
  sub71                     13.45       0.00       0.00       1.07       9.40       0.00       9.40        2.22   347.35   0.699
  sub72                     13.45       0.00       0.00       0.94       7.49       0.00       7.50        1.53   163.23   0.557
  sub73                     13.45      12.84       0.00       8.67      14.26       0.27      14.53        3.41   375.92   0.552
  sub74                     13.45       0.00       0.00      10.09       2.88       0.00       2.89        1.15   273.25   0.215
  
  
  ******************
  Node Depth Summary
  ******************
  
  ---------------------------------------------------------------------------------
                                 Average  Maximum  Maximum  Time of Max    Reported
                                   Depth    Depth      HGL   Occurrence   Max Depth
  Node                 Type       Meters   Meters   Meters  days hr:min      Meters
  ---------------------------------------------------------------------------------
  WS02001211           JUNCTION     0.65     0.78     5.62     0  05:20        0.78
  WS02001212           JUNCTION     0.37     0.49     5.55     0  05:20        0.49
  WS02001213           JUNCTION     0.61     0.74     5.50     0  03:12        0.74
  WS02003069           JUNCTION     0.42     0.59     5.18     0  03:12        0.59
  WS02003072           JUNCTION     0.49     0.65     5.02     0  03:12        0.65
  WS02003073           JUNCTION     0.29     0.40     4.47     0  03:13        0.40
  WS02003060           JUNCTION     0.38     0.52     5.46     0  03:11        0.52
  WS02003066           JUNCTION     0.22     0.33     5.88     0  03:10        0.33
  WS02003059           JUNCTION     0.67     0.80     5.48     0  03:12        0.80
  WS02003067           JUNCTION     0.55     0.75     6.07     0  03:10        0.75
  WS02004401           JUNCTION     0.64     0.99     6.99     0  03:08        0.99
  WS02004402           JUNCTION     0.67     1.00     6.96     0  03:08        1.00
  WS02004403           JUNCTION     0.70     1.01     6.94     0  03:08        1.01
  WS02004404           JUNCTION     0.77     1.07     6.92     0  03:06        1.07
  WS02004406           JUNCTION     0.78     1.04     6.87     0  03:08        1.04
  WS02004409           JUNCTION     0.46     0.76     6.53     0  03:09        0.76
  WS02004410           JUNCTION     0.48     0.77     6.49     0  03:09        0.77
  WS02004411           JUNCTION     0.50     0.77     6.45     0  03:09        0.77
  WS02004412           JUNCTION     0.51     0.77     6.41     0  03:10        0.77
  WS02004413           JUNCTION     0.67     0.92     6.39     0  03:10        0.92
  WS02004405           JUNCTION     0.77     1.05     6.90     0  03:06        1.05
  WS02006109           JUNCTION     0.72     1.12     7.74     0  03:05        1.11
  WS02006110           JUNCTION     0.72     1.02     7.61     0  03:05        1.01
  WS02006111           JUNCTION     0.21     0.39     7.09     0  03:07        0.38
  WS02006112           JUNCTION     0.81     1.21     7.09     0  03:07        1.19
  WS02006113           JUNCTION     0.32     0.52     7.41     0  03:06        0.51
  WS02006115           JUNCTION     0.53     0.90     7.04     0  03:07        0.90
  WS02006116           JUNCTION     0.61     0.98     7.02     0  03:08        0.98
  WS02006230           JUNCTION     0.67     1.18     7.92     0  03:04        1.17
  WS02006231           JUNCTION     0.43     0.81     7.93     0  03:04        0.81
  WS02006232           JUNCTION     0.56     0.91     7.95     0  03:06        0.91
  WS02006234           JUNCTION     0.47     0.80     7.96     0  03:07        0.80
  WS02006235           JUNCTION     0.50     0.81     7.97     0  03:07        0.80
  WS02006238           JUNCTION     0.53     0.83     7.97     0  03:07        0.82
  WS02006240           JUNCTION     0.42     0.72     8.02     0  03:08        0.72
  WS02006242           JUNCTION     0.47     0.79     8.06     0  06:23        0.77
  WS02006243           JUNCTION     0.35     0.66     8.08     0  06:24        0.66
  WS02006245           JUNCTION     0.34     0.64     8.12     0  06:24        0.63
  WS02006247           JUNCTION     0.36     0.65     8.15     0  06:24        0.64
  WS02006248           JUNCTION     0.31     0.58     8.17     0  06:24        0.58
  WS02006249           JUNCTION     0.34     0.60     8.20     0  06:25        0.60
  WS02006239           JUNCTION     0.48     0.79     8.00     0  03:07        0.78
  WS02006251           JUNCTION     0.33     0.62     8.29     0  06:25        0.62
  WS02006252           JUNCTION     0.28     0.59     8.83     0  05:04        0.59
  WS02006253           JUNCTION     0.36     0.65     8.29     0  06:25        0.65
  WS02006256           JUNCTION     0.96     1.21     8.14     0  06:23        1.21
  WS02004138           JUNCTION     0.15     0.19     7.44     0  05:12        0.19
  WS02004407           JUNCTION     0.21     0.33     6.65     0  03:08        0.33
  WS02006228           JUNCTION     0.71     1.19     7.85     0  03:04        1.19
  WS02006229           JUNCTION     0.68     1.21     7.90     0  03:04        1.21
  WS02006280           JUNCTION     0.06     0.24     8.52     0  03:02        0.24
  WS02006284           JUNCTION     0.36     0.63     9.02     0  03:02        0.62
  WS02006287           JUNCTION     0.09     0.37     9.32     0  03:02        0.37
  WSF200               JUNCTION     0.20     0.36     5.59     0  03:10        0.36
  HS02004901           JUNCTION     0.12     0.35    10.17     0  03:01        0.35
  HS02004881           JUNCTION     0.01     0.05     9.08     0  03:01        0.05
  HS02004876           JUNCTION     0.04     0.15     9.18     0  03:01        0.15
  HS02004870           JUNCTION     0.01     0.09     9.37     0  03:01        0.09
  HS02004862           JUNCTION     0.02     0.10     9.49     0  03:01        0.10
  HS02004856           JUNCTION     0.08     0.15     9.57     0  03:01        0.15
  HS02004852           JUNCTION     0.01     0.07     9.58     0  03:02        0.07
  HS02004848           JUNCTION     0.01     0.06     9.67     0  03:01        0.06
  HS02004842           JUNCTION     0.33     0.40     9.67     0  03:01        0.40
  HS02004837           JUNCTION     0.03     0.09     9.67     0  03:01        0.09
  HS02004830           JUNCTION     0.04     0.10     9.57     0  03:01        0.10
  HS02004824           JUNCTION     0.02     0.11     9.51     0  03:02        0.11
  HS02004817           JUNCTION     0.43     0.67     9.52     0  03:02        0.67
  HS02004807           JUNCTION     0.12     0.34     9.51     0  03:02        0.34
  HS02004802           JUNCTION     0.16     0.38     9.50     0  03:02        0.37
  HS02004799           JUNCTION     0.11     0.43     9.65     0  03:01        0.43
  HS02004792           JUNCTION     0.03     0.20     9.72     0  03:01        0.19
  HS02004788           JUNCTION     0.02     0.14    10.04     0  03:02        0.14
  HS02004785           JUNCTION     0.04     0.23    10.13     0  03:02        0.23
  HS02004777           JUNCTION     0.14     0.37    10.17     0  03:01        0.37
  HS02004770           JUNCTION     0.11     0.34    10.17     0  03:01        0.34
  HS02004480           JUNCTION     0.07     0.35     9.59     0  03:01        0.35
  HS02004479           JUNCTION     0.11     0.39     9.60     0  03:01        0.39
  HS02004478           JUNCTION     0.06     0.26     9.48     0  03:01        0.26
  YS02001745           JUNCTION     0.74     0.91     8.43     0  03:25        0.91
  YS02001748           JUNCTION     1.14     1.36     8.43     0  02:44        1.34
  YS02001751           JUNCTION     1.32     1.56     8.44     0  03:24        1.54
  YS02001754           JUNCTION     1.57     1.83     8.44     0  03:25        1.82
  YS02001762           JUNCTION     1.76     2.04     8.44     0  03:25        2.03
  YS02001765           JUNCTION     1.72     1.98     8.43     0  03:11        1.98
  YS02001767           JUNCTION     1.68     1.94     8.43     0  03:15        1.94
  YS02001770           JUNCTION     1.67     1.92     8.42     0  03:26        1.91
  YS02001774           JUNCTION     1.74     1.98     8.40     0  03:14        1.98
  YS02001779           JUNCTION     1.49     1.68     8.37     0  02:49        1.68
  YS02001882           JUNCTION     0.53     1.63     8.35     0  03:00        1.62
  YS02001884           JUNCTION     0.63     1.73     8.35     0  03:01        1.73
  YS02001759           JUNCTION     1.80     2.07     8.44     0  03:14        2.07
  YS02001887           JUNCTION     0.70     1.81     8.35     0  03:00        1.80
  YS02001890           JUNCTION     0.73     1.81     8.32     0  02:51        1.81
  YS02001898           JUNCTION     0.50     1.56     8.30     0  03:00        1.56
  YS02001901           JUNCTION     0.62     1.68     8.29     0  03:03        1.67
  YS02001904           JUNCTION     0.60     1.64     8.27     0  02:51        1.63
  YS02001907           JUNCTION     0.93     1.96     8.25     0  02:51        1.96
  YS02001910           JUNCTION     0.72     1.78     8.29     0  02:52        1.77
  YS02001915           JUNCTION     0.52     1.61     8.33     0  02:52        1.58
  YS02001918           JUNCTION     0.27     1.29     8.36     0  02:52        1.28
  YS02001619           JUNCTION     1.28     1.60     8.53     0  02:42        1.48
  YS02001629           JUNCTION     1.62     1.85     8.40     0  02:42        1.84
  YS02001641           JUNCTION     1.72     1.94     8.37     0  02:49        1.93
  YS02001644           JUNCTION     1.73     1.92     8.35     0  02:47        1.92
  YS02001652           JUNCTION     1.58     2.09     8.68     0  04:01        1.91
  YS02001655           JUNCTION     1.34     2.02     8.87     0  04:01        1.76
  YS02001920           JUNCTION     0.38     1.38     8.38     0  02:52        1.36
  YS02001923           JUNCTION     0.22     1.14     8.40     0  02:52        1.13
  YS02001926           JUNCTION     0.27     0.96     8.41     0  02:52        0.95
  YS02001929           JUNCTION     0.16     0.75     8.44     0  02:52        0.70
  YS02001658           JUNCTION     1.08     1.95     9.09     0  04:01        1.60
  YS02001661           JUNCTION     0.85     1.95     9.35     0  04:01        1.62
  YS02001664           JUNCTION     0.38     0.57     8.49     0  04:03        0.56
  YS02001622           JUNCTION     1.30     1.57     8.48     0  02:42        1.49
  YS02001633           JUNCTION     1.72     1.95     8.40     0  03:11        1.94
  YS02001649           JUNCTION     1.77     2.05     8.44     0  02:51        2.05
  YS02001757           JUNCTION     1.89     2.18     8.44     0  03:26        2.17
  YS02001895           JUNCTION     0.50     1.57     8.31     0  02:58        1.56
  YS02001625           JUNCTION     1.58     1.78     8.38     0  02:42        1.78
  YS02163301           JUNCTION     1.65     1.88     8.40     0  02:59        1.88
  YS02163601           JUNCTION     1.77     1.99     8.39     0  02:51        1.98
  YS02164001           JUNCTION     1.70     1.92     8.38     0  02:47        1.91
  YS02001647           JUNCTION     1.56     1.80     8.41     0  04:38        1.80
  YSB1154              JUNCTION     0.25     0.54     9.60     0  03:01        0.54
  YSB6556              JUNCTION     0.14     0.43     9.60     0  03:02        0.43
  YSB1174              JUNCTION     0.20     0.49     9.60     0  03:01        0.49
  YSB1171              JUNCTION     0.40     0.69     9.60     0  03:01        0.69
  YS02006553           JUNCTION     0.93     1.97     8.25     0  03:00        1.97
  YS02006561           JUNCTION     0.31     1.09     7.75     0  02:51        1.08
  YS02006556           JUNCTION     0.90     1.93     8.25     0  03:01        1.93
  YS02006558           JUNCTION     0.94     1.97     8.24     0  03:00        1.96
  YS02001783           JUNCTION     0.55     1.48     7.62     0  03:00        1.47
  YS02001784           JUNCTION     0.57     1.42     7.49     0  03:00        1.41
  YS02001786           JUNCTION     0.52     1.27     7.30     0  02:51        1.26
  YS02001788           JUNCTION     0.47     1.14     7.11     0  02:51        1.13
  YS02001790           JUNCTION     0.61     1.37     7.01     0  02:21        1.29
  YS02001791           JUNCTION     0.61     1.30     6.77     0  02:21        1.28
  YS02001793           JUNCTION     0.86     1.81     6.64     0  02:51        1.80
  WS02004139           JUNCTION     0.59     0.73     5.64     0  05:20        0.73
  WSC                  OUTFALL      0.29     0.40     1.07     0  03:13        0.40
  3                    OUTFALL      0.08     0.20     6.20     0  06:23        0.20
  4                    OUTFALL      0.01     0.10     7.10     0  06:25        0.10
  5                    OUTFALL      0.00     0.00     5.00     0  00:00        0.00
  JK-storage           STORAGE      3.16     5.80     6.60     0  02:21        5.80
  CC-storage           STORAGE      1.17     1.42     8.42     0  03:23        1.42
  XR-storage           STORAGE      7.36     7.72     5.72     0  02:48        7.72
  
  
  *******************
  Node Inflow Summary
  *******************
  
  -------------------------------------------------------------------------------------------------
                                  Maximum  Maximum                  Lateral       Total        Flow
                                  Lateral    Total  Time of Max      Inflow      Inflow     Balance
                                   Inflow   Inflow   Occurrence      Volume      Volume       Error
  Node                 Type           LPS      LPS  days hr:min    10^6 ltr    10^6 ltr     Percent
  -------------------------------------------------------------------------------------------------
  WS02001211           JUNCTION      7.35   387.52     0  05:19       0.207        6.65       0.436
  WS02001212           JUNCTION      0.00   387.32     0  05:19           0        6.62       0.256
  WS02001213           JUNCTION      0.00   387.13     0  05:20           0         6.6       0.299
  WS02003069           JUNCTION      0.32   971.99     0  03:11     0.00902        13.8       0.178
  WS02003072           JUNCTION      0.00   971.91     0  03:12           0        13.7       0.229
  WS02003073           JUNCTION      1.82   973.72     0  03:12      0.0514        13.8       0.251
  WS02003060           JUNCTION     16.53   971.45     0  03:11       0.466        13.8       0.171
  WS02003066           JUNCTION      0.00   671.40     0  03:10           0        6.76       0.058
  WS02003059           JUNCTION      0.00   387.06     0  05:21           0        6.59       0.488
  WS02003067           JUNCTION      0.00   671.12     0  03:10           0        6.77       0.124
  WS02004401           JUNCTION      0.00   675.43     0  03:07           0        6.97       0.267
  WS02004402           JUNCTION      0.00   674.04     0  03:08           0        6.96       0.256
  WS02004403           JUNCTION      0.00   674.11     0  03:08           0        6.94       0.236
  WS02004404           JUNCTION      0.16   674.80     0  03:08     0.00457        6.93       0.182
  WS02004406           JUNCTION      0.00   674.77     0  03:08           0         6.9       0.445
  WS02004409           JUNCTION      0.00   674.20     0  03:08           0        6.86       0.197
  WS02004410           JUNCTION      0.00   672.82     0  03:08           0        6.85       0.228
  WS02004411           JUNCTION      0.00   671.93     0  03:09           0        6.83       0.239
  WS02004412           JUNCTION      0.00   671.45     0  03:09           0        6.81       0.264
  WS02004413           JUNCTION      0.00   671.18     0  03:09           0         6.8       0.400
  WS02004405           JUNCTION      0.04   674.78     0  03:08     0.00107        6.92       0.273
  WS02006109           JUNCTION      1.23   673.17     0  03:05      0.0347           7       0.200
  WS02006110           JUNCTION      0.00   673.05     0  03:05           0        6.99       0.249
  WS02006111           JUNCTION      0.00   703.99     0  03:05           0        6.97       0.049
  WS02006112           JUNCTION     26.73   682.65     0  03:06      0.0709        7.03       0.370
  WS02006113           JUNCTION      0.00   674.19     0  03:05           0        6.97       0.099
  WS02006115           JUNCTION      0.00   683.13     0  03:06           0        7.01       0.233
  WS02006116           JUNCTION      0.00   676.38     0  03:06           0        6.99       0.227
  WS02006230           JUNCTION     10.28   402.63     0  06:24        0.29         4.9       0.199
  WS02006231           JUNCTION      0.00   394.52     0  06:22           0        4.62       0.170
  WS02006232           JUNCTION      0.00   394.60     0  06:22           0        4.64       0.274
  WS02006234           JUNCTION      0.00   395.68     0  06:22           0        4.64       0.112
  WS02006235           JUNCTION      0.00   395.96     0  06:22           0        4.68       0.156
  WS02006238           JUNCTION      0.00   343.44     0  05:10           0        3.15       0.162
  WS02006240           JUNCTION      0.00   337.47     0  05:10           0        3.14       0.189
  WS02006242           JUNCTION      0.00   334.37     0  05:10           0        3.14       0.201
  WS02006243           JUNCTION      0.00   332.25     0  07:01           0        3.12      -0.308
  WS02006245           JUNCTION      0.00   340.29     0  07:01           0        3.13       0.177
  WS02006247           JUNCTION      0.00   346.70     0  07:00           0        3.13       0.015
  WS02006248           JUNCTION      0.00   351.90     0  07:00           0        3.12      -0.099
  WS02006249           JUNCTION      0.00   402.28     0  05:10           0        3.29       0.154
  WS02006239           JUNCTION      0.00   341.91     0  05:10           0        3.15       0.120
  WS02006251           JUNCTION      0.08   402.48     0  05:07     0.00217        3.32      -0.006
  WS02006252           JUNCTION      0.00   400.00     0  05:00           0        2.88       0.002
  WS02006253           JUNCTION      3.67   134.76     0  03:01     0.00915       0.436      -0.089
  WS02006256           JUNCTION      0.00   600.00     0  05:20           0        3.97       0.066
  WS02004138           JUNCTION      0.00   380.00     0  05:10           0        6.47       0.071
  WS02004407           JUNCTION      0.00   674.54     0  03:08           0        6.87       0.087
  WS02006228           JUNCTION      0.00   671.94     0  03:05           0        6.98       0.159
  WS02006229           JUNCTION      0.00   671.70     0  03:05           0        6.99       0.168
  WS02006280           JUNCTION      0.00   611.95     0  03:02           0         2.1       0.003
  WS02006284           JUNCTION      0.10   611.06     0  03:02      0.0027         2.1       0.059
  WS02006287           JUNCTION      0.00   609.81     0  03:02           0         2.1       0.034
  WSF200               JUNCTION      0.00   671.50     0  03:10           0        6.76       0.052
  HS02004901           JUNCTION     32.58    32.58     0  03:01      0.0853      0.0856       2.107
  HS02004881           JUNCTION     13.69   131.68     0  03:01      0.0371       0.403       0.119
  HS02004876           JUNCTION     24.31   119.37     0  03:01      0.0714       0.367       0.153
  HS02004870           JUNCTION     25.15    96.63     0  03:01      0.0703       0.295       0.038
  HS02004862           JUNCTION     23.13    73.48     0  03:01      0.0763       0.225       0.079
  HS02004856           JUNCTION     18.81    51.87     0  03:01      0.0529        0.15       0.973
  HS02004852           JUNCTION      0.00    35.12     0  03:01           0      0.0975       0.061
  HS02004848           JUNCTION     51.30    51.30     0  03:01        0.17        0.17       0.030
  HS02004842           JUNCTION      0.00    15.11     0  03:01           0      0.0851      18.030
  HS02004837           JUNCTION     48.64    62.30     0  03:01       0.302       0.374       0.218
  HS02004830           JUNCTION      0.15    61.40     0  03:01     0.00423       0.364       0.340
  HS02004824           JUNCTION     61.99   121.74     0  03:01       0.222       0.584       0.093
  HS02004817           JUNCTION      0.60   117.98     0  03:02      0.0169       0.601       2.856
  HS02004807           JUNCTION     46.68   158.01     0  03:01       0.129       0.713       0.602
  HS02004802           JUNCTION      0.00   156.93     0  03:03           0       0.709       0.570
  HS02004799           JUNCTION     37.02   389.17     0  03:01       0.105        1.19       0.208
  HS02004792           JUNCTION    159.34   356.42     0  03:01       0.445        1.08       0.038
  HS02004788           JUNCTION     52.70   202.51     0  03:02       0.193       0.638       0.061
  HS02004785           JUNCTION      0.15   157.27     0  03:01     0.00423       0.447       0.111
  HS02004777           JUNCTION      0.03   160.01     0  03:01    0.000846       0.447       1.175
  HS02004770           JUNCTION    133.95   163.77     0  03:01       0.365       0.449       0.699
  HS02004480           JUNCTION      0.00   456.71     0  03:01           0         1.4       0.084
  HS02004479           JUNCTION      0.00    72.20     0  03:02           0       0.228       0.322
  HS02004478           JUNCTION      0.00   609.26     0  03:02           0         2.1       0.019
  YS02001745           JUNCTION    387.96   387.96     0  03:01        2.65        2.65       0.428
  YS02001748           JUNCTION      0.04   441.78     0  02:43     0.00127        2.64       0.864
  YS02001751           JUNCTION      0.01   398.99     0  03:01     0.00031        2.61       0.901
  YS02001754           JUNCTION      0.26   399.29     0  03:01     0.00733         2.6       0.967
  YS02001762           JUNCTION      0.00   352.59     0  02:52           0        1.77       1.214
  YS02001765           JUNCTION      0.00   353.09     0  02:52           0        1.77       1.397
  YS02001767           JUNCTION      0.54   353.26     0  02:52      0.0151        1.79       2.033
  YS02001770           JUNCTION    496.57   525.05     0  03:25        2.97        3.35       0.953
  YS02001774           JUNCTION      0.00   525.91     0  03:25           0        1.91       1.330
  YS02001779           JUNCTION      0.01   526.40     0  03:25    0.000141        1.88       0.836
  YS02001882           JUNCTION      0.00    24.15     0  02:46           0      0.0266       9.929
  YS02001884           JUNCTION      0.00    33.08     0  02:44           0      0.0619      11.519
  YS02001759           JUNCTION    483.56   700.69     0  02:53        2.74         4.1       0.563
  YS02001887           JUNCTION    623.03   623.03     0  03:01        3.16        3.19       0.277
  YS02001890           JUNCTION      0.00   622.99     0  03:01           0        3.14       0.304
  YS02001898           JUNCTION      0.00   517.36     0  03:02           0        3.09       0.118
  YS02001901           JUNCTION      0.00   517.78     0  03:02           0        3.08       0.230
  YS02001904           JUNCTION      0.00   517.45     0  03:02           0        3.08       0.215
  YS02001907           JUNCTION      0.00  1055.89     0  03:01           0        6.88       0.360
  YS02001910           JUNCTION      0.00   539.43     0  03:01           0        3.81       0.315
  YS02001915           JUNCTION    347.37   539.09     0  03:01        2.22        3.85       0.167
  YS02001918           JUNCTION      0.00   263.63     0  02:53           0        1.65       0.122
  YS02001619           JUNCTION    337.96   337.96     0  03:01         2.2         2.2       0.560
  YS02001629           JUNCTION      0.00   206.69     0  02:47           0        1.55       1.895
  YS02001641           JUNCTION      0.00   434.77     0  02:47           0        4.07       0.523
  YS02001644           JUNCTION    368.39  1274.44     0  03:24        2.55        9.81       0.273
  YS02001652           JUNCTION      0.00   479.06     0  03:02           0        2.31       1.020
  YS02001655           JUNCTION      0.15   478.94     0  03:02     0.00434        2.33       1.089
  YS02001920           JUNCTION      2.87   263.58     0  02:53      0.0809        1.64       0.194
  YS02001923           JUNCTION      0.04   249.29     0  02:53     0.00106        1.54       0.050
  YS02001926           JUNCTION      0.05   189.44     0  02:53     0.00147        1.53       0.221
  YS02001929           JUNCTION    163.23   163.23     0  03:01        1.53        1.53       0.038
  YS02001658           JUNCTION      0.00   590.58     0  02:40           0        2.36       0.956
  YS02001661           JUNCTION      0.00   693.64     0  02:53           0        2.99      -0.186
  YS02001664           JUNCTION    446.68   446.68     0  03:01        2.35        2.99       0.224
  YS02001622           JUNCTION      0.00   338.58     0  03:01           0        2.19       1.474
  YS02001633           JUNCTION    373.80   436.12     0  02:48        2.63        4.13       0.783
  YS02001649           JUNCTION      0.00   929.36     0  02:49           0        5.65       0.660
  YS02001757           JUNCTION      0.00  1809.96     0  02:49           0         8.7       1.072
  YS02001895           JUNCTION      0.00   517.45     0  03:02           0        3.09       0.166
  YS02001625           JUNCTION      0.00   337.96     0  03:01           0        2.16       1.824
  YS02163301           JUNCTION      0.00   209.80     0  02:43           0        1.53       1.592
  YS02163601           JUNCTION      0.11   436.42     0  02:48      0.0031         4.1       0.738
  YS02164001           JUNCTION      0.00   435.87     0  02:48           0        4.08       0.495
  YS02001647           JUNCTION      0.00   662.01     0  02:48           0        4.81       0.600
  YSB1154              JUNCTION     43.21    43.21     0  03:01       0.127       0.128       1.144
  YSB6556              JUNCTION      0.00    41.76     0  03:01           0       0.129       0.980
  YSB1174              JUNCTION     35.94    35.94     0  03:01      0.0924      0.0931       1.402
  YSB1171              JUNCTION      0.00    73.32     0  03:01           0       0.227       2.865
  YS02006553           JUNCTION      0.00   671.90     0  03:32           0        6.12       0.261
  YS02006561           JUNCTION      0.00   969.45     0  03:00           0        8.97       0.005
  YS02006556           JUNCTION      0.00   671.82     0  03:31           0        6.12       0.191
  YS02006558           JUNCTION    532.26   970.39     0  03:00         2.9           9       0.064
  YS02001783           JUNCTION      0.00   969.44     0  03:01           0        8.97       0.029
  YS02001784           JUNCTION      1.06   970.36     0  03:00      0.0299        8.99       0.042
  YS02001786           JUNCTION      0.06   970.69     0  03:00     0.00159        8.99       0.042
  YS02001788           JUNCTION      0.07   970.53     0  03:00       0.002        8.99       0.025
  YS02001790           JUNCTION      0.15   970.90     0  03:00     0.00437        8.99       0.028
  YS02001791           JUNCTION      0.00   970.84     0  03:00           0        8.99       0.014
  YS02001793           JUNCTION      0.00   971.15     0  03:00           0        8.99      -0.003
  WS02004139           JUNCTION      0.32   380.32     0  05:12     0.00905        6.47       0.506
  WSC                  OUTFALL       0.00   973.62     0  03:13           0        13.7       0.000
  3                    OUTFALL       0.00   504.33     0  06:23           0        2.42       0.000
  4                    OUTFALL       0.00   101.59     0  06:25           0       0.165       0.000
  5                    OUTFALL       0.00     0.00     0  00:00           0           0       0.000 ltr
  JK-storage           STORAGE       0.00   971.44     0  03:00           0        9.14      -2.786
  CC-storage           STORAGE       0.00  1810.69     0  02:49           0        6.81       0.968
  XR-storage           STORAGE     849.17   849.17     0  03:01        10.2        10.8      -0.004
  
  
  **********************
  Node Surcharge Summary
  **********************
  
  Surcharging occurs when water rises above the top of the highest conduit.
  ---------------------------------------------------------------------
                                               Max. Height   Min. Depth
                                   Hours       Above Crown    Below Rim
  Node                 Type      Surcharged         Meters       Meters
  ---------------------------------------------------------------------
  WS02004402           JUNCTION        0.03          0.004        1.736
  WS02004403           JUNCTION        0.05          0.006        2.024
  WS02004404           JUNCTION        0.22          0.066        2.714
  WS02004406           JUNCTION        0.16          0.037        2.413
  WS02004405           JUNCTION        0.19          0.055        2.745
  WS02006109           JUNCTION        1.17          0.298        1.522
  WS02006110           JUNCTION        0.34          0.113        1.737
  WS02006112           JUNCTION        0.44          0.210        1.470
  WS02006230           JUNCTION        0.16          0.100        1.470
  WS02006231           JUNCTION        0.18          0.100        1.430
  WS02006232           JUNCTION        1.08          0.209        1.271
  WS02006234           JUNCTION        0.17          0.081        1.159
  WS02006235           JUNCTION        0.54          0.096        1.194
  WS02006238           JUNCTION        0.73          0.111        1.319
  WS02006240           JUNCTION        0.07          0.015        1.375
  WS02006242           JUNCTION        0.52          0.057        0.763
  WS02006239           JUNCTION        0.17          0.049        1.241
  WS02006252           JUNCTION        0.97          0.193        0.907
  WS02006228           JUNCTION        1.10          0.365        1.835
  YS02001748           JUNCTION        5.08          0.277        0.913
  YS02001751           JUNCTION        5.21          0.561        0.639
  YS02001754           JUNCTION        5.38          0.779        0.371
  YS02001762           JUNCTION        5.52          1.039        0.111
  YS02001765           JUNCTION        5.49          0.984        0.116
  YS02001767           JUNCTION        5.47          0.944        0.086
  YS02001770           JUNCTION        5.46          0.890        0.030
  YS02001774           JUNCTION        5.51          0.980        0.070
  YS02001779           JUNCTION        5.36          0.680        0.000
  YS02001882           JUNCTION        1.05          0.632        0.198
  YS02001884           JUNCTION        1.08          0.672        0.198
  YS02001759           JUNCTION        5.54          1.075        0.135
  YS02001887           JUNCTION        1.16          0.760        0.190
  YS02001890           JUNCTION        1.19          0.760        0.000
  YS02001898           JUNCTION        1.00          0.533        0.207
  YS02001901           JUNCTION        1.13          0.677        0.193
  YS02001904           JUNCTION        1.11          0.637        0.213
  YS02001907           JUNCTION        1.67          0.950        0.000
  YS02001910           JUNCTION        1.24          0.785        0.315
  YS02001915           JUNCTION        1.04          0.609        0.391
  YS02001918           JUNCTION        0.79          0.294        0.516
  YS02001619           JUNCTION        5.21          0.602        0.008
  YS02001629           JUNCTION        5.22          0.470        0.000
  YS02001641           JUNCTION        5.50          0.935        0.165
  YS02001644           JUNCTION        5.50          0.920        0.000
  YS02001652           JUNCTION        5.41          1.058        0.072
  YS02001655           JUNCTION        5.23          1.021        0.179
  YS02001920           JUNCTION        0.83          0.376        0.764
  YS02001658           JUNCTION        5.10          0.953        0.347
  YS02001661           JUNCTION        0.29          0.877        0.513
  YS02001622           JUNCTION        5.23          0.574        0.046
  YS02001633           JUNCTION        5.49          0.925        0.135
  YS02001649           JUNCTION        5.52          1.050        0.000
  YS02001757           JUNCTION        5.62          1.178        0.032
  YS02001895           JUNCTION        1.02          0.567        0.183
  YS02001625           JUNCTION        5.43          0.780        0.000
  YS02163301           JUNCTION        5.46          0.881        0.149
  YS02163601           JUNCTION        5.53          0.987        0.093
  YS02164001           JUNCTION        5.49          0.922        0.178
  YS02001647           JUNCTION        5.42          0.800        0.100
  YS02006553           JUNCTION        1.74          0.970        0.220
  YS02006561           JUNCTION        0.92          0.291        0.859
  YS02006556           JUNCTION        1.45          0.895        0.455
  YS02006558           JUNCTION        1.41          0.875        0.525
  YS02001783           JUNCTION        1.63          0.680        0.920
  YS02001784           JUNCTION        1.71          0.622        0.868
  YS02001786           JUNCTION        1.64          0.468        0.962
  YS02001788           JUNCTION        1.62          0.338        1.142
  YS02001790           JUNCTION        2.90          0.567        0.590
  YS02001791           JUNCTION        2.99          0.496        1.424
  YS02001793           JUNCTION        3.06          0.807        1.793
  
  
  *********************
  Node Flooding Summary
  *********************
  
  Flooding refers to all water that overflows a node, whether it ponds or not.
  --------------------------------------------------------------------------
                                                             Total   Maximum
                                 Maximum   Time of Max       Flood    Ponded
                        Hours       Rate    Occurrence      Volume     Depth
  Node                 Flooded       LPS   days hr:min    10^6 ltr    Meters
  --------------------------------------------------------------------------
  YS02001779              2.89    526.21      0  03:25       1.865     0.000
  YS02001890              0.23    107.04      0  03:01       0.038     0.000
  YS02001907              0.66    614.11      0  03:01       0.743     0.000
  YS02001629              0.01     29.05      0  02:42       0.000     0.000
  YS02001644              4.51   1274.09      0  03:25       8.181     0.000
  YS02001649              0.06     37.42      0  04:01       0.002     0.000
  YS02001625              1.18    318.06      0  03:01       0.571     0.000
  JK-storage              2.66    970.93      0  03:00       5.442     0.000
  XR-storage              4.30    564.05      0  03:01       3.411     0.000
  
  
  **********************
  Storage Volume Summary
  **********************
  
  --------------------------------------------------------------------------------------------------
                         Average     Avg  Evap Exfil       Maximum     Max    Time of Max    Maximum
                          Volume    Pcnt  Pcnt  Pcnt        Volume    Pcnt     Occurrence    Outflow
  Storage Unit           1000 m3    Full  Loss  Loss       1000 m3    Full    days hr:min        LPS
  --------------------------------------------------------------------------------------------------
  JK-storage               0.159      55     0     0         0.291     100       0  02:21     600.00
  CC-storage               3.252      21     0     0         3.945      25       0  03:23     400.00
  XR-storage               0.883      95     0     0         0.926     100       0  02:48     380.00
  
  
  ***********************
  Outfall Loading Summary
  ***********************
  
  -----------------------------------------------------------
                         Flow       Avg       Max       Total
                         Freq      Flow      Flow      Volume
  Outfall Node           Pcnt       LPS       LPS    10^6 ltr
  -----------------------------------------------------------
  WSC                  100.00    550.54    973.62      13.717
  3                     69.94    197.57    504.33       2.419
  4                     19.50     44.58    101.59       0.165
  5                      0.00      0.00      0.00       0.000
  -----------------------------------------------------------
  System                47.36    792.70   1285.46      16.301
  
  
  ********************
  Link Flow Summary
  ********************
  
  -----------------------------------------------------------------------------
                                 Maximum  Time of Max   Maximum    Max/    Max/
                                  |Flow|   Occurrence   |Veloc|    Full    Full
  Link                 Type          LPS  days hr:min     m/sec    Flow   Depth
  -----------------------------------------------------------------------------
  WS02003066WSF200     CONDUIT    671.50     0  03:10      2.81    0.11    0.26
  WS02006287WS02006284 CONDUIT    610.97     0  03:02      2.31    0.28    0.37
  WS02006284WS02006280 CONDUIT    611.95     0  03:02      2.55    0.26    0.35
  WS02006280WS02006229 CONDUIT    612.07     0  03:02      4.12    0.13    0.24
  WS02006229WS02006228 CONDUIT    671.94     0  03:05      1.34    2.23    1.00
  WS02006256WS02006235 CONDUIT    158.11     0  00:13      2.30    1.67    1.00
  WS02006253WS02006251 CONDUIT    131.96     0  03:01      0.73    0.40    0.90
  WS02006252WS02006251 CONDUIT    400.61     0  05:07      3.19    1.47    1.00
  WS02006251WS02006249 CONDUIT    402.28     0  05:10      1.16    1.16    0.87
  WS02006249WS02006248 CONDUIT    351.90     0  07:00      1.16    1.93    0.83
  WS02006248WS02006247 CONDUIT    346.70     0  07:00      1.12    0.75    0.87
  WS02006247WS02006245 CONDUIT    340.29     0  07:01      1.08    2.70    0.91
  WS02006245WS02006243 CONDUIT    332.25     0  07:01      1.09    0.98    0.92
  WS02006243WS02006242 CONDUIT    334.37     0  05:10      0.95    0.71    0.97
  WS02006242WS02006240 CONDUIT    337.47     0  05:10      0.90    1.34    1.00
  WS02006240WS02006239 CONDUIT    341.91     0  05:10      0.94    1.08    1.00
  WS02006239WS02006238 CONDUIT    343.44     0  05:10      0.91    1.10    1.00
  WS02006238WS02006235 CONDUIT    343.20     0  05:10      0.91    0.77    1.00
  WS02006235WS02006234 CONDUIT    395.68     0  06:22      1.04    4.17    1.00
  WS02006234WS02006232 CONDUIT    394.60     0  06:22      1.03    0.80    1.00
  WS02006232WS02006231 CONDUIT    394.52     0  06:22      1.07    0.83    1.00
  WS02006231WS02006230 CONDUIT    392.35     0  06:24      1.36    5.95    1.00
  WS02006230WS02006229 CONDUIT    402.44     0  06:24      1.05    8.96    1.00
  WS02006228WS02006109 CONDUIT    671.94     0  03:05      1.34    2.94    1.00
  WS02006116WS02004401 CONDUIT    675.43     0  03:07      0.86    0.93    0.98
  WS02006115WS02006116 CONDUIT    676.38     0  03:06      0.91    0.87    0.91
  WS02006113WS02006111 CONDUIT    703.99     0  03:05      2.60    0.84    0.56
  WS02006112WS02006115 CONDUIT    683.13     0  03:06      0.89    0.40    0.95
  WS02006111WS02006112 CONDUIT    669.90     0  03:06      1.71    0.32    0.73
  WS02006110WS02006113 CONDUIT    674.19     0  03:05      1.53    0.61    0.82
  WS02006109WS02006110 CONDUIT    673.05     0  03:05      1.34    1.29    1.00
  WS02004411WS02004412 CONDUIT    671.45     0  03:09      1.04    0.95    0.77
  WS02004401WS02004402 CONDUIT    674.04     0  03:08      0.86    0.81    0.99
  WS02004413WS02003067 CONDUIT    671.12     0  03:10      1.26    0.29    0.64
  WS02004412WS02004413 CONDUIT    671.18     0  03:09      0.95    0.45    0.84
  WS02004410WS02004411 CONDUIT    671.93     0  03:09      1.04    0.92    0.77
  WS02004409WS02004410 CONDUIT    672.82     0  03:08      1.05    0.87    0.76
  WS02004407WS02004409 CONDUIT    674.20     0  03:08      1.55    0.24    0.55
  WS02004406WS02004407 CONDUIT    674.54     0  03:08      1.21    0.30    0.67
  WS02004405WS02004406 CONDUIT    674.77     0  03:08      0.86    1.33    1.00
  WS02004404WS02004405 CONDUIT    674.75     0  03:08      0.86    6.61    1.00
  WS02004403WS02004404 CONDUIT    674.64     0  03:08      0.86    0.49    1.00
  WS02004402WS02004403 CONDUIT    674.11     0  03:08      0.86    0.97    1.00
  WS02004139WS02001211 CONDUIT    380.18     0  05:19      0.81    0.48    0.59
  WS02004138WS02004139 CONDUIT    380.00     0  05:12      3.34    0.08    0.43
  WS02003067WS02003066 CONDUIT    671.40     0  03:10      1.37    0.22    0.45
  WS02001213WS02003059 CONDUIT    387.06     0  05:21      0.78    0.64    0.76
  WS02001212WS02001213 CONDUIT    387.13     0  05:20      1.19    0.60    0.45
  WS02001211WS02001212 CONDUIT    387.32     0  05:19      0.74    0.30    0.63
  WS02003072WS02003073 CONDUIT    971.90     0  03:12      1.75    2.10    0.49
  WS02003069WS02003072 CONDUIT    971.91     0  03:12      1.64    0.47    0.52
  WS02003060WS02003069 CONDUIT    971.67     0  03:11      1.88    0.38    0.47
  WS02003059WS02003060 CONDUIT    387.06     0  05:21      0.82    0.25    0.66
  HS02004901HS02004770 CONDUIT     32.26     0  03:01      0.09    0.12    0.50
  HS02004876HS02004881 CONDUIT    119.33     0  03:01      1.17    1.27    0.15
  HS02004870HS02004876 CONDUIT     96.14     0  03:01      0.79    0.06    0.17
  HS02004842HS02004848 CONDUIT     15.11     0  03:01      0.07    0.01    0.33
  HS02004837HS02004842 CONDUIT     16.11     0  03:03      0.42    0.01    0.34
  HS02004830HS02004837 CONDUIT     61.25     0  03:01      0.66    0.06    0.13
  HS02004824HS02004830 CONDUIT     60.79     0  03:01      0.63    0.08    0.15
  HS02004817HS02004824 CONDUIT    117.38     0  03:02      0.30    0.05    0.56
  HS02004770HS02004777 CONDUIT    159.98     0  03:01      0.45    0.29    0.51
  HS02004799HS02004480 CONDUIT    387.42     0  03:01      1.00    0.49    0.56
  HS02004792HS02004799 CONDUIT    353.13     0  03:01      1.12    0.22    0.45
  HS02004788HS02004792 CONDUIT    202.10     0  03:02      1.22    0.13    0.24
  HS02004785HS02004788 CONDUIT    156.69     0  03:02      0.85    1.18    0.26
  HS02004777HS02004785 CONDUIT    157.12     0  03:01      0.53    0.19    0.42
  HS02004480HS02004478 CONDUIT    456.76     0  03:01      1.47    1.92    0.44
  HS02004479HS02004480 CONDUIT     74.09     0  03:02      0.22    0.07    0.53
  HS02004862HS02004870 CONDUIT     73.11     0  03:01      0.77    0.08    0.14
  HS02004848HS02004852 CONDUIT     35.12     0  03:01      0.52    0.04    0.10
  HS02004856HS02004862 CONDUIT     51.23     0  03:01      0.58    0.05    0.13
  HS02004852HS02004856 CONDUIT     35.04     0  03:02      0.32    0.04    0.16
  HS02004802HS02004478 CONDUIT    160.67     0  03:04      0.54    0.14    0.45
  HS02004478WS02006287 CONDUIT    609.81     0  03:02      2.03    0.17    0.33
  HS02004817HS02004807 CONDUIT    120.81     0  03:04      0.24    0.07    0.73
  HS02004807HS02004802 CONDUIT    156.93     0  03:03      0.45    0.30    0.51
  YS02001759YS02001757 CONDUIT    700.15     0  02:52      0.89    0.50    1.00
  YS02001762YS02001759 CONDUIT    351.39     0  02:52      0.45    0.40    1.00
  YS02001765YS02001762 CONDUIT    352.59     0  02:52      0.45    0.33    1.00
  YS02001770YS02001767 CONDUIT    352.73     0  02:52      0.45    1.40    1.00
  YS02001774YS02001770 CONDUIT    525.91     0  03:25      0.67    0.34    1.00
  YS02001779YS02001774 CONDUIT    526.40     0  03:25      0.67    0.27    1.00
  YS02001649YS02001757 CONDUIT    930.71     0  02:48      1.19    0.56    1.00
  YS02001767YS02001765 CONDUIT    353.09     0  02:52      0.45    0.44    1.00
  YS02006561YS02001783 CONDUIT    969.44     0  03:01      1.93    0.50    1.00
  YS02001783YS02001784 CONDUIT    969.30     0  03:00      1.93    1.34    1.00
  YS02001784YS02001785 CONDUIT    970.63     0  03:00      1.93    2.26    1.00
  YS02001788YS02001790 CONDUIT    970.75     0  03:00      1.93    0.72    1.00
  YS02001790YS02001791 CONDUIT    970.84     0  03:00      2.26    1.06    1.00
  YS02001791YS02001793 CONDUIT    971.15     0  03:00      4.34    0.42    1.00
  YS02001910YS02001907 CONDUIT    539.15     0  03:01      0.69    0.30    1.00
  YS02001786YS02001788 CONDUIT    970.46     0  03:00      1.93    1.87    1.00
  YS02001915YS02001910 CONDUIT    539.43     0  03:01      0.69    0.27    1.00
  YS02001918YS02001915 CONDUIT    264.06     0  02:53      0.44    0.15    1.00
  YS02001923YS02001920 CONDUIT    260.71     0  02:53      0.72    0.12    1.00
  YS02001926YS02001923 CONDUIT    249.25     0  02:53      0.82    0.36    0.94
  YS02001929YS02001926 CONDUIT    189.39     0  02:53      0.87    0.09    0.85
  YS02001920YS02001918 CONDUIT    263.63     0  02:53      0.70    0.26    1.00
  YS02001629YS02163301 CONDUIT    209.80     0  02:43      0.27    0.26    1.00
  YS02001619YS02001622 CONDUIT    338.58     0  03:01      0.60    0.50    1.00
  YS02001622YS02001625 CONDUIT    337.96     0  03:01      0.43    0.18    1.00
  YS02001625YS02001629 CONDUIT    206.69     0  02:47      0.26    0.10    1.00
  YS02163301YS02001633 CONDUIT    213.87     0  02:43      0.27    0.20    1.00
  YS02163601YS02164001 CONDUIT    435.87     0  02:48      0.55    0.39    1.00
  YS02164001YS02001641 CONDUIT    434.77     0  02:47      0.55    0.59    1.00
  YS02001641YS02001644 CONDUIT    435.42     0  02:47      0.55    1.41    1.00
  YS02001647YS02001649 CONDUIT    661.31     0  02:48      0.84    0.35    1.00
  YS02006553YS02006556 CONDUIT    671.82     0  03:31      0.86    0.57    1.00
  YS02006556YS02006558 CONDUIT    672.21     0  03:32      0.86    0.53    1.00
  YSB6556YSB1171       CONDUIT     41.36     0  03:02      0.13    0.04    0.80
  YS02001907YS02006553 CONDUIT    671.90     0  03:32      0.75    0.79    1.00
  YS02006558YS02006561 CONDUIT    969.45     0  03:00      3.43    2.14    1.00
  YS02001633YS02163601 CONDUIT    436.31     0  02:48      0.56    0.46    1.00
  YS02001644YS02001647 CONDUIT    662.01     0  02:48      0.84    0.39    1.00
  YS02001745YS02001748 CONDUIT    441.73     0  02:43      1.48    0.17    0.96
  YS02001748YS02001751 CONDUIT    398.97     0  03:01      1.03    0.20    1.00
  YS02001751YS02001754 CONDUIT    399.03     0  03:01      0.84    0.19    1.00
  YS02001754YS02001757 CONDUIT    398.62     0  03:01      0.51    0.16    1.00
  YS02001882YS02001884 CONDUIT     24.15     0  02:46      0.08    0.03    1.00
  YS02001884YS02001887 CONDUIT     33.08     0  02:44      0.05    0.04    1.00
  YS02001890YS02001895 CONDUIT    517.45     0  03:02      0.66    0.24    1.00
  YS02001895YS02001898 CONDUIT    517.36     0  03:02      0.66    0.90    1.00
  YS02001898YS02001901 CONDUIT    517.78     0  03:02      0.66    0.33    1.00
  YS02001901YS02001904 CONDUIT    517.45     0  03:02      0.66    0.80    1.00
  YS02001904YS02001907 CONDUIT    517.87     0  03:02      0.66    0.18    1.00
  YS02001887YS02001890 CONDUIT    622.99     0  03:01      0.79    1.07    1.00
  YS02001652YS02001649 CONDUIT    478.91     0  03:02      0.61    0.24    1.00
  YS02001655YS02001652 CONDUIT    479.06     0  03:02      0.89    0.23    1.00
  YS02001658YS02001655 CONDUIT    478.78     0  03:02      1.18    0.20    1.00
  YS02001661YS02001658 CONDUIT    590.58     0  02:40      1.55    0.23    1.00
  YS02001664YS02001661 CONDUIT    693.64     0  02:53      1.46    0.22    0.75
  YSB1154YSB6556       CONDUIT     41.76     0  03:01      0.19    0.08    0.69
  YSB1174YSB1171       CONDUIT     34.48     0  03:01      0.10    0.05    0.81
  YSB1171HS02004479    CONDUIT     72.20     0  03:02      0.54    0.05    0.65
  HS02004881HS02006253 CONDUIT    131.67     0  03:01      2.66    0.03    0.22
  YS02001793JiankangQianchi CONDUIT    971.44     0  03:00     11.98    0.08    1.00
  YS02001757CaochengTiaoxuchi CONDUIT   1810.69     0  02:49      2.41    0.80    1.00
  WSF200WS02003060     CONDUIT    671.87     0  03:10      1.78    0.15    0.37
  1                    CONDUIT    973.62     0  03:13      3.30    0.34    0.40
  2                    CONDUIT    101.59     0  06:25      4.87    0.24    0.34
  3                    CONDUIT    504.33     0  06:23      9.80    0.80    0.68
  4                    CONDUIT      0.00     0  00:00      0.00    0.00    0.00
  CC-Pump-1            PUMP       200.00     0  04:50              1.00
  CC-Pump-2            PUMP       200.00     0  04:20              1.00
  JK-Pump-1            PUMP       300.00     0  05:20              1.00
  JK-Pump-2            PUMP       300.00     0  03:50              1.00
  XR-Pump-1            PUMP        95.00     0  00:00              1.00
  XR-Pump-2            PUMP        95.00     0  00:00              1.00
  XR-Pump-3            PUMP        95.00     0  00:00              1.00
  XR-Pump-4            PUMP        95.00     0  04:50              1.00
  
  
  ***************************
  Flow Classification Summary
  ***************************
  
  -------------------------------------------------------------------------------------
                      Adjusted    ---------- Fraction of Time in Flow Class ---------- 
                       /Actual         Up    Down  Sub   Sup   Up    Down  Norm  Inlet 
  Conduit               Length    Dry  Dry   Dry   Crit  Crit  Crit  Crit  Ltd   Ctrl  
  -------------------------------------------------------------------------------------
  WS02003066WSF200        1.00   0.07  0.00  0.00  0.00  0.93  0.00  0.00  0.70  0.00
  WS02006287WS02006284    1.00   0.04  0.01  0.00  0.67  0.27  0.00  0.00  0.67  0.00
  WS02006284WS02006280    1.00   0.05  0.00  0.00  0.00  0.00  0.00  0.95  0.00  0.00
  WS02006280WS02006229    1.00   0.05  0.00  0.00  0.00  0.00  0.00  0.95  0.00  0.00
  WS02006229WS02006228    1.00   0.00  0.00  0.00  1.00  0.00  0.00  0.00  0.00  0.00
  WS02006256WS02006235    1.00   0.00  0.00  0.00  0.99  0.00  0.00  0.00  0.00  0.00
  WS02006253WS02006251    1.00   0.03  0.01  0.00  0.95  0.00  0.00  0.00  0.00  0.00
  WS02006252WS02006251    1.00   0.16  0.00  0.00  0.00  0.00  0.84  0.00  0.00  0.00
  WS02006251WS02006249    1.00   0.00  0.00  0.00  1.00  0.00  0.00  0.00  0.29  0.00
  WS02006249WS02006248    1.00   0.00  0.00  0.00  0.83  0.00  0.17  0.00  0.00  0.00
  WS02006248WS02006247    1.00   0.00  0.00  0.00  0.97  0.00  0.00  0.02  0.20  0.00
  WS02006247WS02006245    1.00   0.00  0.00  0.00  0.97  0.00  0.00  0.02  0.00  0.00
  WS02006245WS02006243    1.00   0.01  0.00  0.00  0.94  0.00  0.00  0.05  0.01  0.00
  WS02006243WS02006242    1.00   0.01  0.00  0.00  0.99  0.00  0.00  0.00  0.30  0.00
  WS02006242WS02006240    1.00   0.01  0.00  0.00  0.99  0.00  0.00  0.00  0.00  0.00
  WS02006240WS02006239    1.00   0.01  0.00  0.00  0.95  0.00  0.00  0.05  0.01  0.00
  WS02006239WS02006238    1.00   0.00  0.00  0.00  1.00  0.00  0.00  0.00  0.07  0.00
  WS02006238WS02006235    1.00   0.00  0.00  0.00  1.00  0.00  0.00  0.00  0.00  0.00
  WS02006235WS02006234    1.00   0.00  0.00  0.00  0.95  0.00  0.05  0.00  0.00  0.00
  WS02006234WS02006232    1.00   0.00  0.00  0.00  0.99  0.00  0.00  0.00  0.06  0.00
  WS02006232WS02006231    1.00   0.00  0.00  0.00  0.99  0.00  0.00  0.00  0.00  0.00
  WS02006231WS02006230    1.00   0.01  0.00  0.00  0.51  0.00  0.48  0.00  0.00  0.00
  WS02006230WS02006229    1.00   0.00  0.00  0.00  0.99  0.00  0.00  0.01  0.00  0.00
  WS02006228WS02006109    1.00   0.00  0.00  0.00  1.00  0.00  0.00  0.00  0.01  0.00
  WS02006116WS02004401    1.00   0.03  0.00  0.00  0.97  0.00  0.00  0.00  0.00  0.00
  WS02006115WS02006116    1.00   0.03  0.00  0.00  0.96  0.00  0.00  0.01  0.00  0.00
  WS02006113WS02006111    1.00   0.02  0.00  0.00  0.00  0.98  0.00  0.00  0.16  0.00
  WS02006112WS02006115    1.00   0.02  0.01  0.00  0.97  0.00  0.00  0.00  0.00  0.00
  WS02006111WS02006112    1.00   0.02  0.00  0.00  0.97  0.00  0.00  0.00  0.93  0.00
  WS02006110WS02006113    1.00   0.00  0.02  0.00  0.98  0.00  0.00  0.00  0.00  0.00
  WS02006109WS02006110    1.00   0.00  0.00  0.00  1.00  0.00  0.00  0.00  0.00  0.00
  WS02004411WS02004412    1.00   0.05  0.00  0.00  0.95  0.00  0.00  0.00  0.00  0.00
  WS02004401WS02004402    1.00   0.03  0.00  0.00  0.97  0.00  0.00  0.00  0.00  0.00
  WS02004413WS02003067    1.00   0.05  0.02  0.00  0.00  0.00  0.94  0.00  0.00  0.00
  WS02004412WS02004413    1.00   0.05  0.00  0.00  0.95  0.00  0.00  0.00  0.03  0.00
  WS02004410WS02004411    1.00   0.04  0.00  0.00  0.96  0.00  0.00  0.00  0.03  0.00
  WS02004409WS02004410    1.00   0.04  0.00  0.00  0.96  0.00  0.00  0.00  0.03  0.00
  WS02004407WS02004409    1.00   0.04  0.00  0.00  0.95  0.00  0.00  0.00  0.87  0.00
  WS02004406WS02004407    1.00   0.00  0.04  0.00  0.96  0.00  0.00  0.00  0.00  0.00
  WS02004405WS02004406    1.00   0.00  0.00  0.00  1.00  0.00  0.00  0.00  0.03  0.00
  WS02004404WS02004405    1.00   0.00  0.00  0.00  1.00  0.00  0.00  0.00  0.00  0.00
  WS02004403WS02004404    1.00   0.00  0.03  0.00  0.97  0.00  0.00  0.00  0.01  0.00
  WS02004402WS02004403    1.00   0.03  0.00  0.00  0.97  0.00  0.00  0.00  0.00  0.00
  WS02004139WS02001211    1.00   0.00  0.00  0.00  1.00  0.00  0.00  0.00  0.00  0.00
  WS02004138WS02004139    1.00   0.00  0.00  0.00  1.00  0.00  0.00  0.00  1.00  0.00
  WS02003067WS02003066    1.00   0.06  0.01  0.00  0.93  0.00  0.00  0.00  0.00  0.00
  WS02001213WS02003059    1.00   0.00  0.00  0.00  1.00  0.00  0.00  0.00  0.00  0.00
  WS02001212WS02001213    1.00   0.00  0.00  0.00  0.79  0.00  0.21  0.00  0.00  0.00
  WS02001211WS02001212    1.00   0.00  0.00  0.00  1.00  0.00  0.00  0.00  0.00  0.00
  WS02003072WS02003073    1.00   0.00  0.00  0.00  0.00  0.00  0.00  1.00  0.00  0.00
  WS02003069WS02003072    1.00   0.00  0.00  0.00  1.00  0.00  0.00  0.00  0.26  0.00
  WS02003060WS02003069    1.00   0.00  0.00  0.00  1.00  0.00  0.00  0.00  0.14  0.00
  WS02003059WS02003060    1.00   0.00  0.00  0.00  1.00  0.00  0.00  0.00  0.01  0.00
  HS02004901HS02004770    1.00   0.05  0.00  0.00  0.95  0.00  0.00  0.00  0.01  0.00
  HS02004876HS02004881    1.00   0.00  0.00  0.00  0.93  0.07  0.00  0.00  0.00  0.00
  HS02004870HS02004876    1.00   0.00  0.00  0.00  0.99  0.01  0.00  0.00  0.95  0.00
  HS02004842HS02004848    1.00   0.00  0.05  0.00  0.95  0.00  0.00  0.00  0.58  0.00
  HS02004837HS02004842    1.00   0.00  0.00  0.00  1.00  0.00  0.00  0.00  0.11  0.00
  HS02004830HS02004837    1.00   0.00  0.00  0.00  1.00  0.00  0.00  0.00  0.99  0.00
  HS02004824HS02004830    1.00   0.00  0.00  0.00  1.00  0.00  0.00  0.00  0.01  0.00
  HS02004817HS02004824    1.00   0.00  0.00  0.00  1.00  0.00  0.00  0.00  0.98  0.00
  HS02004770HS02004777    1.00   0.00  0.05  0.00  0.95  0.00  0.00  0.00  0.04  0.00
  HS02004799HS02004480    1.00   0.00  0.02  0.00  0.94  0.00  0.04  0.00  0.00  0.00
  HS02004792HS02004799    1.00   0.00  0.00  0.00  1.00  0.00  0.00  0.00  0.98  0.00
  HS02004788HS02004792    1.00   0.00  0.00  0.00  1.00  0.00  0.00  0.00  0.98  0.00
  HS02004785HS02004788    1.00   0.00  0.00  0.00  1.00  0.00  0.00  0.00  0.00  0.00
  HS02004777HS02004785    1.00   0.00  0.00  0.00  1.00  0.00  0.00  0.00  0.15  0.00
  HS02004480HS02004478    1.00   0.05  0.00  0.00  0.76  0.00  0.00  0.20  0.00  0.00
  HS02004479HS02004480    1.00   0.02  0.00  0.00  0.98  0.00  0.00  0.00  0.13  0.00
  HS02004862HS02004870    1.00   0.00  0.00  0.00  1.00  0.00  0.00  0.00  0.06  0.00
  HS02004848HS02004852    1.00   0.05  0.00  0.00  0.95  0.00  0.00  0.00  0.64  0.00
  HS02004856HS02004862    1.00   0.00  0.06  0.00  0.94  0.00  0.00  0.00  0.79  0.00
  HS02004852HS02004856    1.00   0.05  0.00  0.00  0.95  0.00  0.00  0.00  0.81  0.00
  HS02004802HS02004478    1.00   0.05  0.00  0.00  0.95  0.00  0.00  0.00  0.03  0.00
  HS02004478WS02006287    1.00   0.06  0.00  0.00  0.81  0.13  0.00  0.00  0.66  0.00
  HS02004817HS02004807    1.00   0.00  0.05  0.00  0.95  0.00  0.00  0.00  0.01  0.00
  HS02004807HS02004802    1.00   0.05  0.00  0.00  0.95  0.00  0.00  0.00  0.00  0.00
  YS02001759YS02001757    1.00   0.00  0.00  0.00  1.00  0.00  0.00  0.00  0.17  0.00
  YS02001762YS02001759    1.00   0.00  0.00  0.00  1.00  0.00  0.00  0.00  0.04  0.00
  YS02001765YS02001762    1.00   0.00  0.00  0.00  1.00  0.00  0.00  0.00  0.17  0.00
  YS02001770YS02001767    1.00   0.00  0.00  0.00  1.00  0.00  0.00  0.00  0.00  0.00
  YS02001774YS02001770    1.00   0.00  0.05  0.00  0.95  0.00  0.00  0.00  0.04  0.00
  YS02001779YS02001774    1.00   0.00  0.00  0.00  1.00  0.00  0.00  0.00  0.22  0.00
  YS02001649YS02001757    1.00   0.00  0.00  0.00  1.00  0.00  0.00  0.00  0.17  0.00
  YS02001767YS02001765    1.00   0.00  0.00  0.00  1.00  0.00  0.00  0.00  0.01  0.00
  YS02006561YS02001783    1.00   0.06  0.00  0.00  0.42  0.51  0.00  0.00  0.54  0.00
  YS02001783YS02001784    1.00   0.00  0.07  0.00  0.93  0.00  0.00  0.00  0.01  0.00
  YS02001784YS02001785    1.00   0.00  0.00  0.00  1.00  0.00  0.00  0.00  0.21  0.00
  YS02001788YS02001790    1.00   0.00  0.00  0.00  0.53  0.47  0.00  0.00  0.47  0.00
  YS02001790YS02001791    1.00   0.00  0.00  0.00  0.47  0.53  0.00  0.00  0.36  0.00
  YS02001791YS02001793    1.00   0.00  0.00  0.00  0.48  0.52  0.00  0.00  0.01  0.00
  YS02001910YS02001907    1.00   0.00  0.00  0.00  0.99  0.00  0.00  0.01  0.13  0.00
  YS02001786YS02001788    1.00   0.00  0.00  0.00  0.52  0.48  0.00  0.00  0.00  0.00
  YS02001915YS02001910    1.00   0.00  0.00  0.00  0.99  0.01  0.00  0.00  0.19  0.00
  YS02001918YS02001915    1.00   0.00  0.00  0.00  1.00  0.00  0.00  0.00  0.56  0.00
  YS02001923YS02001920    1.00   0.00  0.00  0.00  1.00  0.00  0.00  0.00  0.82  0.00
  YS02001926YS02001923    1.00   0.00  0.03  0.00  0.14  0.00  0.83  0.00  0.00  0.00
  YS02001929YS02001926    1.00   0.00  0.05  0.00  0.95  0.00  0.00  0.00  0.75  0.00
  YS02001920YS02001918    1.00   0.00  0.00  0.00  1.00  0.00  0.00  0.00  0.00  0.00
  YS02001629YS02163301    1.00   0.06  0.00  0.00  0.94  0.00  0.00  0.00  0.00  0.00
  YS02001619YS02001622    1.00   0.05  0.00  0.00  0.95  0.00  0.00  0.00  0.00  0.00
  YS02001622YS02001625    1.00   0.05  0.00  0.00  0.95  0.00  0.00  0.00  0.08  0.00
  YS02001625YS02001629    1.00   0.05  0.02  0.00  0.92  0.00  0.01  0.00  0.00  0.00
  YS02163301YS02001633    1.00   0.00  0.05  0.00  0.95  0.00  0.00  0.00  0.00  0.00
  YS02163601YS02164001    1.00   0.00  0.04  0.00  0.96  0.00  0.00  0.00  0.00  0.00
  YS02164001YS02001641    1.00   0.00  0.04  0.00  0.96  0.00  0.00  0.00  0.06  0.00
  YS02001641YS02001644    1.00   0.00  0.00  0.00  1.00  0.00  0.00  0.00  0.00  0.00
  YS02001647YS02001649    1.00   0.00  0.06  0.00  0.94  0.00  0.00  0.00  0.01  0.00
  YS02006553YS02006556    1.00   0.00  0.00  0.00  1.00  0.00  0.00  0.00  0.03  0.00
  YS02006556YS02006558    1.00   0.00  0.00  0.00  1.00  0.00  0.00  0.00  0.00  0.00
  YSB6556YSB1171          1.00   0.02  0.02  0.00  0.95  0.00  0.00  0.00  0.00  0.00
  YS02001907YS02006553    1.00   0.00  0.00  0.00  1.00  0.00  0.00  0.00  0.00  0.00
  YS02006558YS02006561    1.00   0.06  0.00  0.00  0.18  0.76  0.00  0.00  0.46  0.00
  YS02001633YS02163601    1.00   0.00  0.00  0.00  1.00  0.00  0.00  0.00  0.16  0.00
  YS02001644YS02001647    1.00   0.00  0.06  0.00  0.94  0.00  0.00  0.00  0.00  0.00
  YS02001745YS02001748    1.00   0.00  0.00  0.00  0.90  0.00  0.00  0.10  0.03  0.00
  YS02001748YS02001751    1.00   0.00  0.00  0.00  0.97  0.03  0.00  0.00  0.15  0.00
  YS02001751YS02001754    1.00   0.00  0.00  0.00  0.93  0.00  0.00  0.07  0.02  0.00
  YS02001754YS02001757    1.00   0.00  0.00  0.00  1.00  0.00  0.00  0.00  0.21  0.00
  YS02001882YS02001884    1.00   0.05  0.00  0.00  0.94  0.00  0.00  0.00  0.00  0.00
  YS02001884YS02001887    1.00   0.03  0.01  0.00  0.96  0.00  0.00  0.00  0.00  0.00
  YS02001890YS02001895    1.00   0.00  0.06  0.00  0.94  0.00  0.00  0.00  0.00  0.00
  YS02001895YS02001898    1.00   0.06  0.00  0.00  0.93  0.00  0.01  0.00  0.00  0.00
  YS02001898YS02001901    1.00   0.06  0.00  0.00  0.94  0.00  0.00  0.00  0.03  0.00
  YS02001901YS02001904    1.00   0.06  0.00  0.00  0.94  0.00  0.00  0.00  0.00  0.00
  YS02001904YS02001907    1.00   0.00  0.06  0.00  0.94  0.00  0.00  0.00  0.00  0.00
  YS02001887YS02001890    1.00   0.00  0.00  0.00  0.99  0.00  0.01  0.00  0.00  0.00
  YS02001652YS02001649    1.00   0.00  0.00  0.00  1.00  0.00  0.00  0.00  0.19  0.00
  YS02001655YS02001652    1.00   0.00  0.00  0.00  0.93  0.00  0.00  0.07  0.03  0.00
  YS02001658YS02001655    1.00   0.00  0.05  0.00  0.92  0.03  0.00  0.00  0.13  0.00
  YS02001661YS02001658    1.00   0.05  0.00  0.00  0.90  0.05  0.00  0.00  0.09  0.00
  YS02001664YS02001661    1.00   0.05  0.00  0.00  0.92  0.03  0.00  0.00  0.22  0.00
  YSB1154YSB6556          1.00   0.05  0.00  0.00  0.95  0.00  0.00  0.00  0.02  0.00
  YSB1174YSB1171          1.00   0.03  0.01  0.00  0.96  0.00  0.00  0.00  0.00  0.00
  YSB1171HS02004479       1.00   0.02  0.00  0.00  0.97  0.00  0.00  0.01  0.11  0.00
  HS02004881HS02006253    1.00   0.03  0.00  0.00  0.54  0.04  0.00  0.39  0.38  0.00
  YS02001793JiankangQianchi    1.00   0.00  0.00  0.00  0.71  0.29  0.00  0.00  0.31  0.00
  YS02001757CaochengTiaoxuchi    1.00   0.00  0.08  0.00  0.92  0.00  0.00  0.00  0.00  0.00
  WSF200WS02003060        1.00   0.00  0.07  0.00  0.74  0.19  0.00  0.00  0.31  0.00
  1                       1.00   0.00  0.00  0.00  0.00  1.00  0.00  0.00  0.34  0.00
  2                       1.00   0.80  0.00  0.00  0.00  0.20  0.00  0.00  0.03  0.00
  3                       1.00   0.30  0.00  0.00  0.00  0.70  0.00  0.00  0.01  0.00
  4                       1.00   1.00  0.00  0.00  0.00  0.00  0.00  0.00  0.00  0.00
  
  
  *************************
  Conduit Surcharge Summary
  *************************
  
  ----------------------------------------------------------------------------
                                                           Hours        Hours 
                         --------- Hours Full --------   Above Full   Capacity
  Conduit                Both Ends  Upstream  Dnstream   Normal Flow   Limited
  ----------------------------------------------------------------------------
  WS02006229WS02006228        1.09      1.23      1.09      3.26         1.09
  WS02006256WS02006235        5.24      5.24      6.91      2.87         0.01
  WS02006252WS02006251        0.56      0.56      0.97      0.86         0.01
  WS02006251WS02006249        0.01      0.01      0.01      0.54         0.01
  WS02006249WS02006248        0.01      0.01      0.01      2.38         0.01
  WS02006247WS02006245        0.01      0.01      0.01      3.16         0.01
  WS02006243WS02006242        0.01      0.01      0.52      0.01         0.01
  WS02006242WS02006240        0.07      0.07      0.78      0.98         0.01
  WS02006240WS02006239        0.12      0.12      0.17      0.05         0.01
  WS02006239WS02006238        0.66      0.67      0.73      0.10         0.08
  WS02006238WS02006235        0.65      0.65      0.97      0.01         0.01
  WS02006235WS02006234        0.17      0.17      0.54      4.73         0.01
  WS02006234WS02006232        0.21      0.21      1.08      0.01         0.01
  WS02006232WS02006231        0.18      0.18      1.08      0.01         0.01
  WS02006231WS02006230        0.16      0.16      0.19      4.83         0.02
  WS02006230WS02006229        1.91      2.84      1.91      5.52         1.72
  WS02006228WS02006109        1.17      1.60      1.17      4.51         1.17
  WS02006112WS02006115        0.01      0.01      0.44      0.01         0.01
  WS02006111WS02006112        0.01      0.01      3.43      0.01         0.01
  WS02006110WS02006113        0.01      0.01      1.44      0.01         0.01
  WS02006109WS02006110        0.34      0.34      1.60      0.34         0.01
  WS02004401WS02004402        0.01      0.01      0.03      0.01         0.01
  WS02004406WS02004407        0.01      0.01      0.16      0.01         0.01
  WS02004405WS02004406        0.16      0.19      0.16      0.40         0.16
  WS02004404WS02004405        0.19      0.22      0.19      5.88         0.19
  WS02004403WS02004404        0.05      0.05      0.22      0.01         0.01
  WS02004402WS02004403        0.03      0.03      0.05      0.01         0.01
  WS02003072WS02003073        0.01      0.01      0.01      4.74         0.01
  HS02004876HS02004881        0.01      0.01      0.01      0.17         0.01
  HS02004785HS02004788        0.01      0.01      0.01      0.10         0.01
  HS02004480HS02004478        0.01      0.01      0.01      0.52         0.01
  YS02001759YS02001757        5.54      5.54      5.62      0.01         0.01
  YS02001762YS02001759        5.52      5.52      5.54      0.01         0.01
  YS02001765YS02001762        5.49      5.49      5.52      0.01         0.01
  YS02001770YS02001767        5.47      5.47      5.47      0.24         0.69
  YS02001774YS02001770        5.46      5.46      5.51      0.01         0.01
  YS02001779YS02001774        5.36      5.36      5.51      0.01         0.01
  YS02001649YS02001757        5.52      5.52      5.62      0.01         0.01
  YS02001767YS02001765        5.47      5.47      5.49      0.01         0.01
  YS02006561YS02001783        0.92      0.92      1.63      0.01         0.01
  YS02001783YS02001784        1.63      1.63      1.71      1.28         1.28
  YS02001784YS02001785        1.64      1.71      1.64      2.22         1.64
  YS02001788YS02001790        1.61      1.61      2.90      0.01         0.01
  YS02001790YS02001791        2.90      2.90      2.99      0.76         0.76
  YS02001791YS02001793        2.99      2.99      3.09      0.01         0.01
  YS02001910YS02001907        1.24      1.24      1.67      0.01         0.01
  YS02001786YS02001788        1.61      1.64      1.61      1.84         1.61
  YS02001915YS02001910        1.04      1.04      1.24      0.01         0.01
  YS02001918YS02001915        0.79      0.79      1.04      0.01         0.01
  YS02001923YS02001920        0.63      0.63      0.83      0.01         0.01
  YS02001920YS02001918        0.79      0.79      0.83      0.01         0.01
  YS02001629YS02163301        5.46      5.46      5.46      0.01         0.01
  YS02001619YS02001622        5.21      5.21      5.23      0.01         0.01
  YS02001622YS02001625        5.23      5.23      5.43      0.01         0.01
  YS02001625YS02001629        5.22      5.22      5.43      0.01         0.01
  YS02163301YS02001633        5.46      5.46      5.49      0.01         0.01
  YS02163601YS02164001        5.49      5.49      5.53      0.01         0.01
  YS02164001YS02001641        5.49      5.49      5.50      0.01         0.03
  YS02001641YS02001644        5.50      5.50      5.50      1.47         1.48
  YS02001647YS02001649        5.42      5.42      5.52      0.01         0.01
  YS02006553YS02006556        1.45      1.45      1.74      0.01         0.01
  YS02006556YS02006558        1.57      1.57      1.81      0.01         0.01
  YS02001907YS02006553        2.24      2.24      2.45      0.01         0.01
  YS02006558YS02006561        1.13      1.41      1.13      2.09         1.13
  YS02001633YS02163601        5.49      5.49      5.53      0.01         0.01
  YS02001644YS02001647        5.42      5.42      5.50      0.01         0.01
  YS02001745YS02001748        0.01      0.01      5.07      0.01         0.01
  YS02001748YS02001751        5.11      5.11      5.21      0.01         0.01
  YS02001751YS02001754        5.21      5.21      5.38      0.01         0.01
  YS02001754YS02001757        5.41      5.41      5.62      0.01         0.01
  YS02001882YS02001884        1.05      1.05      1.08      0.01         0.01
  YS02001884YS02001887        1.13      1.13      1.16      0.01         0.01
  YS02001890YS02001895        1.02      1.02      1.25      0.01         0.01
  YS02001895YS02001898        1.00      1.00      1.02      0.01         0.01
  YS02001898YS02001901        1.03      1.03      1.13      0.01         0.01
  YS02001901YS02001904        1.11      1.11      1.13      0.01         0.01
  YS02001904YS02001907        1.11      1.11      1.77      0.01         0.01
  YS02001887YS02001890        1.19      1.19      1.22      0.07         0.01
  YS02001652YS02001649        5.43      5.43      5.52      0.01         0.01
  YS02001655YS02001652        5.23      5.23      5.41      0.01         0.01
  YS02001658YS02001655        5.10      5.10      5.23      0.01         0.01
  YS02001661YS02001658        0.26      0.26      5.10      0.01         0.01
  YS02001664YS02001661        0.01      0.01      1.23      0.01         0.01
  YS02001793JiankangQianchi        3.06      3.06      4.23      0.01         0.01
  YS02001757CaochengTiaoxuchi        4.93      4.93      5.62      0.01         0.01
  
  
  ***************
  Pumping Summary
  ***************
  
  ---------------------------------------------------------------------------------------------------------
                                                  Min       Avg       Max     Total     Power    % Time Off
                        Percent   Number of      Flow      Flow      Flow    Volume     Usage    Pump Curve
  Pump                 Utilized   Start-Ups       LPS       LPS       LPS  10^6 ltr     Kw-hr    Low   High
  ---------------------------------------------------------------------------------------------------------
  CC-Pump-1               27.65           5      0.00    122.91    200.00     0.960      0.96    0.0    0.0
  CC-Pump-2               53.18           4      0.00    138.72    200.00     1.920      1.52    0.0    0.0
  JK-Pump-1               36.18           6      0.00    164.17    300.00     1.322     18.19    0.0    0.0
  JK-Pump-2               61.71           4      0.00    194.59    300.00     2.638     26.60    0.0    0.0
  XR-Pump-1               89.36           4      0.00     76.92     95.00     1.967     14.54    0.0    0.0
  XR-Pump-2               82.97           8      0.00     65.91     95.00     1.681     12.95    0.0    0.0
  XR-Pump-3               80.84           6      0.00     75.28     95.00     1.824     13.98    0.0    0.0
  XR-Pump-4               48.93           4      0.00     71.93     95.00     0.997      4.61    0.0    0.0
  

  Analysis begun on:  Wed Dec 22 10:07:40 2021
  Analysis ended on:  Wed Dec 22 10:07:44 2021
  Total elapsed time: 00:00:04