
  EPA STORM WATER MANAGEMENT MODEL - VERSION 5.1 (Build 5.3.0.dev0)
  --------------------------------------------------------------

  WARNING 04: minimum elevation drop used for Conduit WS02004404WS02004405
  WARNING 03: negative offset ignored for Link YS02001904YS02001907
  
  *********************************************************
  NOTE: The summary statistics displayed in this report are
  based on results found at every computational time step,  
  not just on results from each reporting time step.
  *********************************************************
  
  ****************
  Analysis Options
  ****************
  Flow Units ............... LPS
  Process Models:
    Rainfall/Runoff ........ YES
    RDII ................... NO
    Snowmelt ............... NO
    Groundwater ............ NO
    Flow Routing ........... YES
    Ponding Allowed ........ NO
    Water Quality .......... NO
  Infiltration Method ...... HORTON
  Flow Routing Method ...... DYNWAVE
  Surcharge Method ......... EXTRAN
  Starting Date ............ 08/28/2015 08:00:00
  Ending Date .............. 08/28/2015 15:50:00
  Antecedent Dry Days ...... 8.0
  Report Time Step ......... 00:01:00
  Wet Time Step ............ 00:01:00
  Dry Time Step ............ 00:01:00
  Routing Time Step ........ 5.00 sec
  Variable Time Step ....... YES
  Maximum Trials ........... 8
  Number of Threads ........ 4
  Head Tolerance ........... 0.001500 m
  
  
  **************************        Volume         Depth
  Runoff Quantity Continuity     hectare-m            mm
  **************************     ---------       -------
  Total Precipitation ......        10.887        23.836
  Evaporation Loss .........         0.000         0.000
  Infiltration Loss ........         2.344         5.132
  Surface Runoff ...........         7.303        15.990
  Final Storage ............         1.241         2.717
  Continuity Error (%) .....        -0.012
  
  
  **************************        Volume        Volume
  Flow Routing Continuity        hectare-m      10^6 ltr
  **************************     ---------     ---------
  Dry Weather Inflow .......         0.616         6.165
  Wet Weather Inflow .......         7.301        73.015
  Groundwater Inflow .......         0.000         0.000
  RDII Inflow ..............         0.000         0.000
  External Inflow ..........         0.102         1.024
  External Outflow .........         2.029        20.288
  Flooding Loss ............         5.445        54.454
  Evaporation Loss .........         0.000         0.000
  Exfiltration Loss ........         0.000         0.000
  Initial Stored Volume ....         0.076         0.761
  Final Stored Volume ......         0.660         6.600
  Continuity Error (%) .....        -0.466
  
  
  *************************
  Highest Continuity Errors
  *************************
  Node HS02004842 (8.73%)
  Node YS02001884 (7.71%)
  Node JK-storage (-2.50%)
  Node HS02004817 (1.69%)
  Node YSB1171 (1.47%)
  
  
  ***************************
  Time-Step Critical Elements
  ***************************
  Link WS02006252WS02006251 (43.46%)
  Link 3 (41.97%)
  Link WS02006280WS02006229 (4.91%)
  Link WS02006238WS02006235 (3.29%)
  
  
  ********************************
  Highest Flow Instability Indexes
  ********************************
  Link WS02006113WS02006111 (40)
  Link YS02163601YS02164001 (26)
  Link YS02163301YS02001633 (25)
  Link YS02001629YS02163301 (25)
  Link YS02001619YS02001622 (24)
  
  
  *************************
  Routing Time Step Summary
  *************************
  Minimum Time Step           :     0.30 sec
  Average Time Step           :     0.84 sec
  Maximum Time Step           :     5.00 sec
  Percent in Steady State     :    -0.00
  Average Iterations per Step :     3.58
  Percent Not Converging      :    10.95
  
  
  ***************************
  Subcatchment Runoff Summary
  ***************************
  
  ------------------------------------------------------------------------------------------------------------------------------
                            Total      Total      Total      Total     Imperv       Perv      Total       Total     Peak  Runoff
                           Precip      Runon       Evap      Infil     Runoff     Runoff     Runoff      Runoff   Runoff   Coeff
  Subcatchment                 mm         mm         mm         mm         mm         mm         mm    10^6 ltr      LPS
  ------------------------------------------------------------------------------------------------------------------------------
  sub0                      23.84       0.00       0.00       1.03      20.90       0.64      21.54        0.02     4.74   0.904
  sub1                      23.84       0.00       0.00       1.74      19.95       0.88      20.83        0.14    30.53   0.874
  sub2                      23.84       0.00       0.00       6.87      14.10       1.95      16.05        0.15    28.29   0.673
  sub3                      23.84       0.00       0.00       7.14      14.06       1.68      15.74        0.35    61.76   0.660
  sub4                      23.84       0.00       0.00       1.87      19.78       0.75      20.54        0.43    72.83   0.862
  sub5                      23.84       0.00       0.00       1.08      20.85       0.59      21.44        0.24    54.28   0.899
  sub7                      23.84       0.00       0.00       1.37      20.44       0.77      21.21        0.07    17.57   0.890
  sub8                      23.84       0.00       0.00       1.38      20.42       0.76      21.19        0.14    32.08   0.889
  sub9                      23.84       0.00       0.00       1.39      20.42       0.76      21.18        0.10    23.95   0.889
  sub10                     23.84       0.00       0.00       1.24      20.63       0.67      21.30        0.23    53.40   0.894
  sub11                     23.84       0.00       0.00       1.22      20.65       0.69      21.34        0.25    59.71   0.895
  sub12                     23.84       0.00       0.00       1.98      19.55       1.11      20.66        0.18    46.17   0.867
  sub14                     23.84       0.00       0.00       1.39      20.42       0.76      21.18        0.20    47.08   0.888
  sub15                     23.84       0.00       0.00       5.16      15.70       1.99      17.70        0.30    64.58   0.742
  sub16                     23.84       0.00       0.00       5.46      15.05       2.40      17.45        0.18    41.69   0.732
  sub17                     23.84       0.00       0.00       5.32      15.27       2.31      17.58        0.15    34.22   0.738
  sub22                     23.84       0.00       0.00       7.63      12.80       2.62      15.42        0.97   202.91   0.647
  sub23                     23.84       0.00       0.00       6.37      14.15       2.45      16.60        0.79   171.10   0.696
  sub60                     23.84       0.00       0.00       2.46      17.68       0.40      18.08        5.48   635.50   0.759
  sub61                     23.84       0.00       0.00       3.48      17.44       0.57      18.00        5.55   687.97   0.755
  sub62                     23.84       0.00       0.00       1.52      19.11       0.39      19.50        5.99   726.55   0.818
  sub63                     23.84       0.00       0.00       6.22      15.11       0.70      15.81        4.78   606.27   0.663
  sub64                     23.84       0.00       0.00       3.15      17.01       0.42      17.43        5.30   611.50   0.731
  sub65                     23.84       0.00       0.00       2.70      17.34       0.40      17.73        5.45   625.37   0.744
  sub66                     23.84       0.00       0.00       6.42      14.44       0.49      14.93        4.58   541.58   0.626
  sub67                     23.84       0.00       0.00       1.46      19.71       0.45      20.16        6.22   787.40   0.846
  sub68                     23.84       0.00       0.00       2.78      18.22       0.56      18.78        5.78   724.10   0.788
  sub69                     23.84       0.00       0.00       2.86      18.50       0.72      19.22        4.49   586.55   0.806
  sub70                     23.84      19.62       0.00       9.95      26.14       3.78      29.92        6.85   801.71   0.689
  sub71                     23.84       0.00       0.00       1.54      18.81       0.36      19.18        4.53   536.91   0.805
  sub72                     23.84       0.00       0.00       1.45      16.32       0.22      16.55        3.37   330.66   0.694
  sub73                     23.84      29.13       0.00       9.95      31.58       5.28      36.86        8.66   884.85   0.696
  sub74                     23.84       0.00       0.00      17.30       5.48       0.57       6.05        2.42   323.16   0.254
  
  
  ******************
  Node Depth Summary
  ******************
  
  ---------------------------------------------------------------------------------
                                 Average  Maximum  Maximum  Time of Max    Reported
                                   Depth    Depth      HGL   Occurrence   Max Depth
  Node                 Type       Meters   Meters   Meters  days hr:min      Meters
  ---------------------------------------------------------------------------------
  WS02001211           JUNCTION     0.65     0.76     5.60     0  01:52        0.76
  WS02001212           JUNCTION     0.38     0.50     5.56     0  01:52        0.50
  WS02001213           JUNCTION     0.62     0.78     5.54     0  01:51        0.78
  WS02003069           JUNCTION     0.45     0.65     5.23     0  01:52        0.65
  WS02003072           JUNCTION     0.52     0.70     5.07     0  01:53        0.70
  WS02003073           JUNCTION     0.31     0.43     4.50     0  01:53        0.43
  WS02003060           JUNCTION     0.40     0.57     5.50     0  01:52        0.57
  WS02003066           JUNCTION     0.24     0.37     5.93     0  01:39        0.37
  WS02003059           JUNCTION     0.68     0.84     5.53     0  01:52        0.84
  WS02003067           JUNCTION     0.59     0.80     6.12     0  01:39        0.80
  WS02004401           JUNCTION     0.71     1.35     7.35     0  01:33        1.18
  WS02004402           JUNCTION     0.74     1.39     7.35     0  01:33        1.17
  WS02004403           JUNCTION     0.76     1.38     7.31     0  01:33        1.16
  WS02004404           JUNCTION     0.83     1.44     7.29     0  01:33        1.21
  WS02004406           JUNCTION     0.83     1.35     7.18     0  01:33        1.14
  WS02004409           JUNCTION     0.52     0.91     6.68     0  01:39        0.91
  WS02004410           JUNCTION     0.54     0.90     6.62     0  01:40        0.90
  WS02004411           JUNCTION     0.55     0.89     6.57     0  01:39        0.89
  WS02004412           JUNCTION     0.57     0.87     6.51     0  01:39        0.87
  WS02004413           JUNCTION     0.72     1.00     6.47     0  01:40        1.00
  WS02004405           JUNCTION     0.82     1.38     7.23     0  01:33        1.18
  WS02006109           JUNCTION     0.80     1.40     8.02     0  01:36        1.40
  WS02006110           JUNCTION     0.79     1.23     7.82     0  01:36        1.22
  WS02006111           JUNCTION     0.26     0.77     7.48     0  01:36        0.77
  WS02006112           JUNCTION     0.89     1.61     7.49     0  01:33        1.48
  WS02006113           JUNCTION     0.37     0.74     7.64     0  01:36        0.74
  WS02006115           JUNCTION     0.61     1.56     7.70     0  01:33        1.15
  WS02006116           JUNCTION     0.69     1.43     7.47     0  01:33        1.20
  WS02006230           JUNCTION     0.78     1.88     8.63     0  01:30        1.54
  WS02006231           JUNCTION     0.53     1.56     8.69     0  01:30        1.17
  WS02006232           JUNCTION     0.65     1.55     8.59     0  01:31        1.25
  WS02006234           JUNCTION     0.57     1.53     8.69     0  01:31        1.13
  WS02006235           JUNCTION     0.59     1.55     8.71     0  01:31        1.12
  WS02006238           JUNCTION     0.61     1.58     8.73     0  01:31        1.14
  WS02006240           JUNCTION     0.50     2.10     9.39     0  01:31        1.18
  WS02006242           JUNCTION     0.55     1.55     8.82     0  01:31        1.32
  WS02006243           JUNCTION     0.42     1.48     8.90     0  01:31        1.22
  WS02006245           JUNCTION     0.40     1.56     9.04     0  01:31        1.07
  WS02006247           JUNCTION     0.41     1.47     8.97     0  01:31        1.00
  WS02006248           JUNCTION     0.35     1.10     8.69     0  01:31        0.76
  WS02006249           JUNCTION     0.38     0.76     8.35     0  01:40        0.76
  WS02006239           JUNCTION     0.57     1.65     8.86     0  01:31        1.16
  WS02006251           JUNCTION     0.37     0.88     8.55     0  01:40        0.88
  WS02006252           JUNCTION     0.30     0.59     8.83     0  05:20        0.59
  WS02006253           JUNCTION     0.40     0.92     8.56     0  01:40        0.91
  WS02006256           JUNCTION     1.03     1.21     8.14     0  06:10        1.21
  WS02004138           JUNCTION     0.14     0.19     7.44     0  07:20        0.19
  WS02004407           JUNCTION     0.24     0.38     6.70     0  01:37        0.38
  WS02006228           JUNCTION     0.81     1.55     8.20     0  01:36        1.53
  WS02006229           JUNCTION     0.80     1.60     8.29     0  01:36        1.59
  WS02006280           JUNCTION     0.09     0.29     8.56     0  01:36        0.29
  WS02006284           JUNCTION     0.40     0.68     9.08     0  01:36        0.68
  WS02006287           JUNCTION     0.13     0.43     9.38     0  01:36        0.43
  WSF200               JUNCTION     0.23     0.41     5.64     0  01:44        0.41
  HS02004901           JUNCTION     0.15     0.40    10.23     0  01:33        0.40
  HS02004881           JUNCTION     0.01     0.06     9.09     0  01:36        0.06
  HS02004876           JUNCTION     0.05     0.18     9.21     0  01:36        0.18
  HS02004870           JUNCTION     0.02     0.11     9.39     0  01:36        0.11
  HS02004862           JUNCTION     0.03     0.12     9.50     0  01:37        0.12
  HS02004856           JUNCTION     0.09     0.16     9.59     0  01:37        0.16
  HS02004852           JUNCTION     0.02     0.09     9.60     0  01:37        0.09
  HS02004848           JUNCTION     0.02     0.08     9.68     0  01:37        0.08
  HS02004842           JUNCTION     0.34     0.41     9.68     0  01:37        0.41
  HS02004837           JUNCTION     0.04     0.10     9.68     0  01:37        0.10
  HS02004830           JUNCTION     0.05     0.13     9.60     0  01:36        0.13
  HS02004824           JUNCTION     0.04     0.17     9.57     0  01:35        0.17
  HS02004817           JUNCTION     0.47     0.74     9.59     0  01:34        0.74
  HS02004807           JUNCTION     0.15     0.41     9.58     0  01:36        0.40
  HS02004802           JUNCTION     0.19     0.44     9.56     0  01:36        0.44
  HS02004799           JUNCTION     0.15     0.51     9.72     0  01:34        0.51
  HS02004792           JUNCTION     0.05     0.24     9.76     0  01:33        0.24
  HS02004788           JUNCTION     0.04     0.17    10.07     0  01:34        0.17
  HS02004785           JUNCTION     0.06     0.27    10.17     0  01:33        0.27
  HS02004777           JUNCTION     0.17     0.41    10.21     0  01:33        0.41
  HS02004770           JUNCTION     0.14     0.39    10.22     0  01:33        0.39
  HS02004480           JUNCTION     0.11     0.42     9.66     0  01:34        0.42
  HS02004479           JUNCTION     0.15     0.46     9.66     0  01:34        0.46
  HS02004478           JUNCTION     0.08     0.32     9.54     0  01:36        0.32
  YS02001745           JUNCTION     0.81     1.15     8.67     0  01:33        1.04
  YS02001748           JUNCTION     1.22     2.27     9.35     0  01:32        1.46
  YS02001751           JUNCTION     1.41     2.20     9.08     0  01:32        1.64
  YS02001754           JUNCTION     1.66     2.14     8.75     0  01:32        1.89
  YS02001762           JUNCTION     1.86     2.07     8.47     0  02:56        2.07
  YS02001765           JUNCTION     1.81     2.02     8.47     0  03:12        2.02
  YS02001767           JUNCTION     1.77     1.97     8.46     0  02:56        1.97
  YS02001770           JUNCTION     1.77     1.95     8.44     0  02:23        1.95
  YS02001774           JUNCTION     1.83     2.01     8.43     0  01:32        1.99
  YS02001779           JUNCTION     1.57     1.68     8.37     0  01:30        1.68
  YS02001882           JUNCTION     0.77     1.78     8.50     0  01:36        1.64
  YS02001884           JUNCTION     0.86     1.85     8.47     0  01:36        1.73
  YS02001759           JUNCTION     1.89     2.11     8.48     0  02:56        2.11
  YS02001887           JUNCTION     0.94     1.87     8.41     0  01:36        1.81
  YS02001890           JUNCTION     0.97     1.81     8.32     0  01:36        1.81
  YS02001898           JUNCTION     0.73     1.71     8.44     0  01:36        1.56
  YS02001901           JUNCTION     0.85     1.80     8.41     0  01:36        1.67
  YS02001904           JUNCTION     0.83     1.71     8.34     0  01:36        1.63
  YS02001907           JUNCTION     1.16     1.96     8.25     0  01:36        1.96
  YS02001910           JUNCTION     0.95     1.99     8.49     0  01:37        1.79
  YS02001915           JUNCTION     0.75     1.95     8.66     0  01:35        1.62
  YS02001918           JUNCTION     0.49     1.81     8.88     0  01:37        1.31
  YS02001619           JUNCTION     1.36     1.61     8.54     0  01:31        1.50
  YS02001629           JUNCTION     1.71     1.85     8.40     0  01:31        1.84
  YS02001641           JUNCTION     1.81     1.95     8.39     0  01:32        1.94
  YS02001644           JUNCTION     1.81     1.92     8.35     0  01:32        1.92
  YS02001652           JUNCTION     1.67     2.16     8.76     0  01:33        1.88
  YS02001655           JUNCTION     1.43     2.20     9.05     0  01:32        1.69
  YS02001920           JUNCTION     0.59     2.14     9.15     0  01:38        1.40
  YS02001923           JUNCTION     0.40     2.03     9.29     0  01:37        1.18
  YS02001926           JUNCTION     0.42     1.90     9.35     0  01:38        1.67
  YS02001929           JUNCTION     0.26     1.78     9.47     0  01:38        1.78
  YS02001658           JUNCTION     1.16     2.30     9.44     0  01:32        1.45
  YS02001661           JUNCTION     0.92     2.46     9.86     0  01:33        1.23
  YS02001664           JUNCTION     0.42     0.72     8.65     0  01:33        0.69
  YS02001622           JUNCTION     1.38     1.62     8.52     0  01:31        1.51
  YS02001633           JUNCTION     1.80     1.96     8.42     0  01:32        1.95
  YS02001649           JUNCTION     1.86     2.05     8.44     0  01:32        2.05
  YS02001757           JUNCTION     1.99     2.21     8.47     0  01:32        2.21
  YS02001895           JUNCTION     0.73     1.66     8.40     0  01:36        1.56
  YS02001625           JUNCTION     1.66     1.78     8.38     0  01:31        1.78
  YS02163301           JUNCTION     1.74     1.89     8.41     0  01:33        1.88
  YS02163601           JUNCTION     1.85     2.01     8.41     0  01:32        2.00
  YS02164001           JUNCTION     1.79     1.95     8.41     0  01:32        1.93
  YS02001647           JUNCTION     1.64     1.84     8.45     0  01:32        1.79
  YSB1154              JUNCTION     0.29     0.61     9.67     0  01:34        0.61
  YSB6556              JUNCTION     0.18     0.50     9.67     0  01:34        0.50
  YSB1174              JUNCTION     0.24     0.56     9.67     0  01:34        0.56
  YSB1171              JUNCTION     0.44     0.76     9.67     0  01:34        0.76
  YS02006553           JUNCTION     1.16     2.19     8.47     0  01:36        1.97
  YS02006561           JUNCTION     0.47     1.95     8.61     0  01:36        1.09
  YS02006556           JUNCTION     1.12     2.39     8.70     0  01:36        1.93
  YS02006558           JUNCTION     1.16     2.50     8.77     0  01:36        1.98
  YS02001783           JUNCTION     0.76     2.40     8.54     0  01:36        1.48
  YS02001784           JUNCTION     0.76     2.29     8.36     0  01:36        1.43
  YS02001786           JUNCTION     0.69     2.23     8.26     0  01:35        1.26
  YS02001788           JUNCTION     0.63     2.28     8.26     0  01:35        1.13
  YS02001790           JUNCTION     0.79     1.96     7.60     0  01:35        1.29
  YS02001791           JUNCTION     0.79     2.72     8.19     0  01:35        1.27
  YS02001793           JUNCTION     1.15     3.22     8.05     0  01:34        1.80
  WS02004139           JUNCTION     0.59     0.70     5.61     0  01:53        0.70
  WSC                  OUTFALL      0.31     0.43     1.10     0  01:54        0.43
  3                    OUTFALL      0.09     0.20     6.20     0  06:10        0.20
  4                    OUTFALL      0.02     0.30     7.30     0  01:38        0.30
  5                    OUTFALL      0.00     0.00     5.00     0  00:00        0.00
  JK-storage           STORAGE      4.08     5.80     6.60     0  01:35        5.80
  CC-storage           STORAGE      1.21     1.48     8.48     0  02:27        1.48
  XR-storage           STORAGE      7.35     7.72     5.72     0  01:45        7.72
  
  
  *******************
  Node Inflow Summary
  *******************
  
  -------------------------------------------------------------------------------------------------
                                  Maximum  Maximum                  Lateral       Total        Flow
                                  Lateral    Total  Time of Max      Inflow      Inflow     Balance
                                   Inflow   Inflow   Occurrence      Volume      Volume       Error
  Node                 Type           LPS      LPS  days hr:min    10^6 ltr    10^6 ltr     Percent
  -------------------------------------------------------------------------------------------------
  WS02001211           JUNCTION      7.35   376.76     0  07:20       0.207        6.71       0.440
  WS02001212           JUNCTION      0.00   369.56     0  07:21           0        6.68       0.272
  WS02001213           JUNCTION      0.00   367.18     0  07:21           0        6.66       0.304
  WS02003069           JUNCTION      0.32  1122.21     0  01:52     0.00902        16.5       0.169
  WS02003072           JUNCTION      0.00  1122.07     0  01:52           0        16.5       0.210
  WS02003073           JUNCTION      1.82  1123.81     0  01:53      0.0514        16.5       0.234
  WS02003060           JUNCTION     16.53  1121.95     0  01:51       0.466        16.5       0.161
  WS02003066           JUNCTION      0.00   878.34     0  01:40           0        9.44       0.049
  WS02003059           JUNCTION      0.00   364.84     0  07:22           0        6.64       0.509
  WS02003067           JUNCTION      0.00   877.99     0  01:40           0        9.45       0.102
  WS02004401           JUNCTION      0.00   883.63     0  01:37           0        9.69       0.228
  WS02004402           JUNCTION      0.00   883.38     0  01:37           0        9.67       0.214
  WS02004403           JUNCTION      0.00   883.61     0  01:37           0        9.65       0.194
  WS02004404           JUNCTION      0.16   884.13     0  01:37     0.00457        9.63       0.145
  WS02004406           JUNCTION      0.00   884.44     0  01:37           0         9.6       0.354
  WS02004409           JUNCTION      0.00   883.55     0  01:37           0        9.56       0.180
  WS02004410           JUNCTION      0.00   878.26     0  01:39           0        9.54       0.201
  WS02004411           JUNCTION      0.00   878.03     0  01:39           0        9.52       0.206
  WS02004412           JUNCTION      0.00   877.97     0  01:40           0         9.5       0.221
  WS02004413           JUNCTION      0.00   877.92     0  01:40           0        9.48       0.327
  WS02004405           JUNCTION      0.04   884.51     0  01:37     0.00107        9.62       0.219
  WS02006109           JUNCTION      1.23   861.05     0  01:33      0.0347        9.67       0.201
  WS02006110           JUNCTION      0.00   861.01     0  01:33           0        9.65       0.219
  WS02006111           JUNCTION      0.00   852.12     0  01:32           0        9.61       0.041
  WS02006112           JUNCTION     34.22   884.31     0  01:37       0.151        9.76       0.303
  WS02006113           JUNCTION      0.00   860.95     0  01:33           0        9.63       0.112
  WS02006115           JUNCTION      0.00   884.27     0  01:37           0        9.73       0.227
  WS02006116           JUNCTION      0.00   883.81     0  01:37           0        9.71       0.193
  WS02006230           JUNCTION     10.28   403.12     0  06:10        0.29        5.65       0.170
  WS02006231           JUNCTION      0.00   393.02     0  06:10           0        5.35       0.259
  WS02006232           JUNCTION      0.00   393.02     0  06:10           0        5.34       0.302
  WS02006234           JUNCTION      0.00   393.14     0  06:10           0        5.33       0.181
  WS02006235           JUNCTION      0.00   393.13     0  06:10           0         5.5       0.159
  WS02006238           JUNCTION      0.00   308.73     0  06:51           0        3.71       0.215
  WS02006240           JUNCTION      0.00   311.83     0  06:51           0        3.71       0.335
  WS02006242           JUNCTION      0.00   321.47     0  05:21           0        3.71       0.412
  WS02006243           JUNCTION      0.00   333.39     0  04:01           0         3.7      -0.206
  WS02006245           JUNCTION      0.00   341.95     0  04:01           0        3.71       0.388
  WS02006247           JUNCTION      0.00   349.01     0  04:00           0        3.72       0.192
  WS02006248           JUNCTION      0.00   356.44     0  01:31           0        3.72       0.059
  WS02006249           JUNCTION      0.00   568.55     0  01:40           0        4.22       0.311
  WS02006239           JUNCTION      0.00   309.46     0  06:51           0        3.71       0.299
  WS02006251           JUNCTION      0.08   570.03     0  01:40     0.00217        4.26       0.196
  WS02006252           JUNCTION      0.00   400.00     0  06:00           0         3.4       0.012
  WS02006253           JUNCTION      4.74   178.63     0  01:36      0.0174       0.871       0.462
  WS02006256           JUNCTION      0.00   599.96     0  04:30           0        5.18       0.049
  WS02004138           JUNCTION      0.00   379.98     0  06:30           0        6.53       0.070
  WS02004407           JUNCTION      0.00   884.53     0  01:36           0        9.57       0.080
  WS02006228           JUNCTION      0.00   859.83     0  01:33           0        9.65       0.155
  WS02006229           JUNCTION      0.00   869.18     0  01:34           0        9.71       0.139
  WS02006280           JUNCTION      0.00   821.08     0  01:36           0        4.12       0.003
  WS02006284           JUNCTION      0.10   821.07     0  01:36      0.0027        4.12       0.022
  WS02006287           JUNCTION      0.00   820.95     0  01:36           0        4.12       0.018
  WSF200               JUNCTION      0.00   878.35     0  01:40           0        9.44       0.049
  HS02004901           JUNCTION     41.69    41.69     0  01:31       0.183       0.183       0.971
  HS02004881           JUNCTION     17.57   174.51     0  01:36      0.0714       0.818       0.048
  HS02004876           JUNCTION     30.53   157.86     0  01:36       0.139       0.747       0.075
  HS02004870           JUNCTION     32.08   127.64     0  01:36       0.135       0.609       0.018
  HS02004862           JUNCTION     28.49    96.84     0  01:37       0.155       0.474       0.037
  HS02004856           JUNCTION     23.95    68.40     0  01:36       0.102        0.32       0.455
  HS02004852           JUNCTION      0.00    45.39     0  01:37           0       0.218       0.028
  HS02004848           JUNCTION     61.76    61.76     0  01:40       0.354       0.354       0.013
  HS02004842           JUNCTION      0.00    18.52     0  01:51           0       0.149       9.567
  HS02004837           JUNCTION     59.75    74.34     0  01:37       0.414        0.55       0.147
  HS02004830           JUNCTION      0.15    74.45     0  01:37     0.00423        0.54       0.229
  HS02004824           JUNCTION     72.88   147.21     0  01:40        0.43       0.969       0.056
  HS02004817           JUNCTION      0.60   150.50     0  01:41      0.0169       0.985       1.721
  HS02004807           JUNCTION     59.71   205.72     0  01:37       0.248        1.22       0.360
  HS02004802           JUNCTION      0.00   204.83     0  01:39           0        1.22       0.327
  HS02004799           JUNCTION     47.08   525.51     0  01:33       0.202         2.5       0.119
  HS02004792           JUNCTION    203.19   478.62     0  01:33       0.982         2.3       0.016
  HS02004788           JUNCTION     66.25   277.11     0  01:34       0.351        1.32       0.029
  HS02004785           JUNCTION      0.15   210.94     0  01:33     0.00423       0.971       0.053
  HS02004777           JUNCTION      0.03   211.17     0  01:32    0.000846       0.971       0.540
  HS02004770           JUNCTION    171.10   212.05     0  01:32       0.791       0.972       0.316
  HS02004480           JUNCTION      0.00   623.60     0  01:34           0        2.92       0.035
  HS02004479           JUNCTION      0.00    98.35     0  01:34           0       0.432       0.172
  HS02004478           JUNCTION      0.00   820.93     0  01:35           0        4.12       0.008
  YS02001745           JUNCTION    635.50   635.50     0  03:01        5.48        5.48       0.216
  YS02001748           JUNCTION      0.04   635.96     0  03:01     0.00127        5.47       0.414
  YS02001751           JUNCTION      0.01   636.03     0  03:01     0.00031        5.45       0.445
  YS02001754           JUNCTION      0.26   636.33     0  03:01     0.00733        5.44       0.447
  YS02001762           JUNCTION      0.00   374.80     0  01:45           0        3.23       0.655
  YS02001765           JUNCTION      0.00   375.06     0  01:45           0        3.22       0.758
  YS02001767           JUNCTION      0.54   374.95     0  01:45      0.0151        3.25       1.110
  YS02001770           JUNCTION    726.70  1084.97     0  03:01           6         7.9       0.398
  YS02001774           JUNCTION      0.00   851.17     0  03:12           0        6.21       0.402
  YS02001779           JUNCTION      0.01   851.17     0  03:12    0.000141        6.19       0.249
  YS02001882           JUNCTION      0.00    41.15     0  01:34           0      0.0443       5.795
  YS02001884           JUNCTION      0.00    54.89     0  01:32           0      0.0836       8.353
  YS02001759           JUNCTION    688.01   891.67     0  01:48        5.55        6.85       0.333
  YS02001887           JUNCTION    787.85   787.85     0  03:01        6.23        6.27       0.142
  YS02001890           JUNCTION      0.00   787.86     0  03:01           0        6.22       0.156
  YS02001898           JUNCTION      0.00   558.67     0  01:37           0        5.25       0.050
  YS02001901           JUNCTION      0.00   559.00     0  01:37           0        5.25       0.147
  YS02001904           JUNCTION      0.00   559.21     0  01:37           0        5.24       0.122
  YS02001907           JUNCTION      0.00  1384.54     0  03:01           0        13.2       0.183
  YS02001910           JUNCTION      0.00   868.09     0  03:01           0        7.98       0.155
  YS02001915           JUNCTION    536.93   868.04     0  03:01        4.53        8.03       0.082
  YS02001918           JUNCTION      0.00   390.08     0  01:38           0        3.54       0.052
  YS02001619           JUNCTION    541.58   541.58     0  03:01        4.58        4.58       0.266
  YS02001629           JUNCTION      0.00   369.77     0  01:31           0        1.87       1.518
  YS02001641           JUNCTION      0.00   450.96     0  01:32           0        5.95       0.351
  YS02001644           JUNCTION    611.54  1882.11     0  03:01         5.3        18.5       0.142
  YS02001652           JUNCTION      0.00   607.50     0  03:01           0        4.73       0.477
  YS02001655           JUNCTION      0.15   607.48     0  03:01     0.00434        4.75       0.533
  YS02001920           JUNCTION      2.87   389.77     0  01:38      0.0809        3.52       0.096
  YS02001923           JUNCTION      0.04   370.63     0  01:37     0.00106        3.42       0.033
  YS02001926           JUNCTION      0.05   330.49     0  03:01     0.00147        3.39       0.102
  YS02001929           JUNCTION    330.66   373.46     0  01:37        3.37        3.37       0.015
  YS02001658           JUNCTION      0.00   607.31     0  03:01           0        4.77       0.471
  YS02001661           JUNCTION      0.00   807.14     0  01:50           0        5.31       0.122
  YS02001664           JUNCTION    606.27   606.27     0  03:01        4.78        5.31       0.119
  YS02001622           JUNCTION      0.00   541.60     0  03:01           0        4.57       0.696
  YS02001633           JUNCTION    625.57   625.57     0  03:01        5.46        6.65       0.482
  YS02001649           JUNCTION      0.00  1415.28     0  03:01           0          11       0.337
  YS02001757           JUNCTION      0.00  2173.18     0  01:48           0        12.7       0.716
  YS02001895           JUNCTION      0.00   557.99     0  01:37           0        5.24       0.119
  YS02001625           JUNCTION      0.00   743.65     0  03:01           0        5.19       0.779
  YS02163301           JUNCTION      0.00   304.30     0  01:30           0        1.87       1.289
  YS02163601           JUNCTION      0.11   451.41     0  01:32      0.0031        5.95       0.504
  YS02164001           JUNCTION      0.00   451.26     0  01:32           0        5.94       0.335
  YS02001647           JUNCTION      0.00   846.70     0  03:23           0        8.49       0.333
  YSB1154              JUNCTION     54.28    54.28     0  01:34       0.243       0.243       0.595
  YSB6556              JUNCTION      0.00    54.36     0  01:35           0       0.244       0.519
  YSB1174              JUNCTION     46.17    46.17     0  01:30       0.181       0.181       0.711
  YSB1171              JUNCTION      0.00    98.47     0  01:34           0       0.431       1.495
  YS02006553           JUNCTION      0.00   700.44     0  03:51           0        7.63       0.207
  YS02006561           JUNCTION      0.00  1037.32     0  01:35           0        13.4       0.004
  YS02006556           JUNCTION      0.00   700.54     0  03:51           0        7.64       0.148
  YS02006558           JUNCTION    724.98  1036.75     0  01:35         5.8        13.4       0.042
  YS02001783           JUNCTION      0.00  1009.09     0  01:35           0        13.4       0.022
  YS02001784           JUNCTION      1.06  1009.98     0  01:35      0.0299        13.4       0.031
  YS02001786           JUNCTION      0.06  1010.16     0  01:35     0.00159        13.4       0.029
  YS02001788           JUNCTION      0.07   978.48     0  01:35       0.002        13.4       0.017
  YS02001790           JUNCTION      0.15   974.17     0  03:01     0.00437        13.4       0.022
  YS02001791           JUNCTION      0.00   974.18     0  03:01           0        13.4       0.008
  YS02001793           JUNCTION      0.00   974.18     0  03:01           0        13.4       0.004
  WS02004139           JUNCTION      0.32   379.27     0  07:20     0.00905        6.53       0.508
  WSC                  OUTFALL       0.00  1123.70     0  01:54           0        16.4       0.000
  3                    OUTFALL       0.00   504.82     0  06:10           0        3.36       0.000
  4                    OUTFALL       0.00   432.84     0  01:40           0       0.488       0.000
  5                    OUTFALL       0.00     0.00     0  00:00           0           0       0.000 ltr
  JK-storage           STORAGE       0.00  1014.48     0  01:34           0        13.5      -2.440
  CC-storage           STORAGE       0.00  2174.30     0  01:48           0        7.46       0.873
  XR-storage           STORAGE    1408.02  1408.02     0  03:01        16.7        17.3      -0.002
  
  
  **********************
  Node Surcharge Summary
  **********************
  
  Surcharging occurs when water rises above the top of the highest conduit.
  ---------------------------------------------------------------------
                                               Max. Height   Min. Depth
                                   Hours       Above Crown    Below Rim
  Node                 Type      Surcharged         Meters       Meters
  ---------------------------------------------------------------------
  WS02004401           JUNCTION        0.73          0.350        1.310
  WS02004402           JUNCTION        0.78          0.393        1.347
  WS02004403           JUNCTION        0.80          0.384        1.646
  WS02004404           JUNCTION        1.07          0.440        2.340
  WS02004406           JUNCTION        0.95          0.350        2.100
  WS02004405           JUNCTION        1.01          0.383        2.417
  WS02006109           JUNCTION        2.73          0.583        1.237
  WS02006110           JUNCTION        1.39          0.320        1.530
  WS02006112           JUNCTION        1.87          0.609        1.071
  WS02006115           JUNCTION        0.40          0.553        1.697
  WS02006116           JUNCTION        0.47          0.368        1.922
  WS02006230           JUNCTION        0.92          0.804        0.766
  WS02006231           JUNCTION        0.93          0.853        0.677
  WS02006232           JUNCTION        2.35          0.851        0.629
  WS02006234           JUNCTION        0.89          0.810        0.430
  WS02006235           JUNCTION        1.19          0.837        0.453
  WS02006238           JUNCTION        1.60          0.861        0.569
  WS02006240           JUNCTION        0.68          1.390        0.000
  WS02006242           JUNCTION        0.99          0.820        0.000
  WS02006243           JUNCTION        0.33          0.770        0.000
  WS02006245           JUNCTION        0.27          0.850        0.000
  WS02006247           JUNCTION        0.26          0.760        0.000
  WS02006248           JUNCTION        0.11          0.380        0.000
  WS02006239           JUNCTION        0.92          0.906        0.384
  WS02006252           JUNCTION        1.44          0.190        0.910
  WS02006228           JUNCTION        2.60          0.716        1.484
  HS02004817           JUNCTION        0.32          0.041        1.699
  YS02001745           JUNCTION        0.81          0.149        1.201
  YS02001748           JUNCTION        6.28          1.190        0.000
  YS02001751           JUNCTION        6.30          1.200        0.000
  YS02001754           JUNCTION        6.31          1.095        0.055
  YS02001762           JUNCTION        6.34          1.074        0.076
  YS02001765           JUNCTION        6.34          1.023        0.077
  YS02001767           JUNCTION        6.33          0.974        0.056
  YS02001770           JUNCTION        6.33          0.920        0.000
  YS02001774           JUNCTION        6.34          1.010        0.040
  YS02001779           JUNCTION        6.31          0.680        0.000
  YS02001882           JUNCTION        2.57          0.784        0.046
  YS02001884           JUNCTION        2.60          0.793        0.077
  YS02001759           JUNCTION        6.35          1.114        0.096
  YS02001887           JUNCTION        2.68          0.822        0.128
  YS02001890           JUNCTION        2.70          0.760        0.000
  YS02001898           JUNCTION        2.53          0.678        0.062
  YS02001901           JUNCTION        2.64          0.799        0.071
  YS02001904           JUNCTION        2.62          0.709        0.141
  YS02001907           JUNCTION        3.05          0.950        0.000
  YS02001910           JUNCTION        2.74          0.988        0.112
  YS02001915           JUNCTION        2.56          0.947        0.053
  YS02001918           JUNCTION        2.34          0.810        0.000
  YS02001619           JUNCTION        6.31          0.610        0.000
  YS02001629           JUNCTION        6.31          0.470        0.000
  YS02001641           JUNCTION        6.34          0.953        0.147
  YS02001644           JUNCTION        6.34          0.920        0.000
  YS02001652           JUNCTION        6.31          1.130        0.000
  YS02001655           JUNCTION        6.30          1.200        0.000
  YS02001920           JUNCTION        2.38          1.140        0.000
  YS02001923           JUNCTION        0.01          0.820        0.000
  YS02001926           JUNCTION        0.01          0.900        0.000
  YS02001929           JUNCTION        0.01          0.780        0.000
  YS02001658           JUNCTION        6.29          1.300        0.000
  YS02001661           JUNCTION        1.20          1.390        0.000
  YS02001622           JUNCTION        6.31          0.620        0.000
  YS02001633           JUNCTION        6.33          0.945        0.115
  YS02001649           JUNCTION        6.34          1.050        0.000
  YS02001757           JUNCTION        6.36          1.210        0.000
  YS02001895           JUNCTION        2.54          0.657        0.093
  YS02001625           JUNCTION        6.32          0.780        0.000
  YS02163301           JUNCTION        6.33          0.893        0.137
  YS02163601           JUNCTION        6.34          1.013        0.067
  YS02164001           JUNCTION        6.33          0.947        0.153
  YS02001647           JUNCTION        6.32          0.839        0.061
  YS02006553           JUNCTION        3.08          1.190        0.000
  YS02006561           JUNCTION        2.45          1.150        0.000
  YS02006556           JUNCTION        2.90          1.350        0.000
  YS02006558           JUNCTION        2.88          1.400        0.000
  YS02001783           JUNCTION        2.94          1.600        0.000
  YS02001784           JUNCTION        3.01          1.490        0.000
  YS02001786           JUNCTION        2.92          1.430        0.000
  YS02001788           JUNCTION        2.89          1.480        0.000
  YS02001790           JUNCTION        4.15          1.157        0.000
  YS02001791           JUNCTION        4.26          1.920        0.000
  YS02001793           JUNCTION        4.42          2.217        0.383
  
  
  *********************
  Node Flooding Summary
  *********************
  
  Flooding refers to all water that overflows a node, whether it ponds or not.
  --------------------------------------------------------------------------
                                                             Total   Maximum
                                 Maximum   Time of Max       Flood    Ponded
                        Hours       Rate    Occurrence      Volume     Depth
  Node                 Flooded       LPS   days hr:min    10^6 ltr    Meters
  --------------------------------------------------------------------------
  WS02006240              0.01     81.08      0  01:31       0.000     0.000
  WS02006242              0.01    230.55      0  01:31       0.000     0.000
  WS02006243              0.01    140.60      0  01:31       0.000     0.000
  WS02006245              0.01     53.63      0  01:31       0.000     0.000
  WS02006247              0.01    154.01      0  01:31       0.000     0.000
  WS02006248              0.01    122.75      0  01:31       0.000     0.000
  YS02001748              0.01    213.01      0  01:32       0.000     0.000
  YS02001751              0.01      5.59      0  01:32       0.000     0.000
  YS02001770              0.84    233.73      0  03:01       0.317     0.000
  YS02001779              4.40    851.17      0  03:12       6.170     0.000
  YS02001890              1.66    271.45      0  03:01       0.963     0.000
  YS02001907              2.20   1136.90      0  03:01       5.550     0.000
  YS02001918              0.01     79.99      0  01:38       0.000     0.000
  YS02001619              0.01     90.07      0  01:31       0.000     0.000
  YS02001629              0.01    361.56      0  01:31       0.004     0.000
  YS02001644              6.05   1882.06      0  03:01      17.289     0.000
  YS02001652              0.01     15.59      0  01:33       0.000     0.000
  YS02001655              0.01     36.21      0  01:32       0.000     0.000
  YS02001920              0.01     14.95      0  01:38       0.000     0.000
  YS02001923              0.01    146.17      0  01:38       0.000     0.000
  YS02001926              0.01     76.79      0  01:38       0.000     0.000
  YS02001929              0.01    215.04      0  01:38       0.000     0.000
  YS02001658              0.01    354.51      0  01:32       0.000     0.000
  YS02001661              0.01    178.08      0  01:33       0.000     0.000
  YS02001622              0.01     83.35      0  01:31       0.000     0.000
  YS02001649              1.12    568.56      0  03:01       1.483     0.000
  YS02001757              0.23     43.00      0  02:56       0.017     0.000
  YS02001625              2.88    743.61      0  03:01       3.936     0.000
  YS02006553              0.01      4.56      0  01:36       0.000     0.000
  YS02006561              0.01    117.00      0  01:36       0.000     0.000
  YS02006556              0.01     24.52      0  01:36       0.000     0.000
  YS02006558              0.01      9.36      0  01:36       0.000     0.000
  YS02001783              0.01     35.62      0  01:36       0.000     0.000
  YS02001784              0.01      6.19      0  01:36       0.000     0.000
  YS02001786              0.01    137.65      0  01:35       0.000     0.000
  YS02001788              0.01    117.82      0  01:35       0.000     0.000
  YS02001790              0.01    276.91      0  01:35       0.000     0.000
  YS02001791              0.01    206.40      0  01:35       0.000     0.000
  JK-storage              3.81    974.18      0  03:01       8.852     0.000
  XR-storage              5.48   1122.92      0  03:01       9.868     0.000
  
  
  **********************
  Storage Volume Summary
  **********************
  
  --------------------------------------------------------------------------------------------------
                         Average     Avg  Evap Exfil       Maximum     Max    Time of Max    Maximum
                          Volume    Pcnt  Pcnt  Pcnt        Volume    Pcnt     Occurrence    Outflow
  Storage Unit           1000 m3    Full  Loss  Loss       1000 m3    Full    days hr:min        LPS
  --------------------------------------------------------------------------------------------------
  JK-storage               0.205      70     0     0         0.291     100       0  01:35     599.96
  CC-storage               3.379      22     0     0         4.118      26       0  02:27     400.00
  XR-storage               0.882      95     0     0         0.926     100       0  01:45     379.98
  
  
  ***********************
  Outfall Loading Summary
  ***********************
  
  -----------------------------------------------------------
                         Flow       Avg       Max       Total
                         Freq      Flow      Flow      Volume
  Outfall Node           Pcnt       LPS       LPS    10^6 ltr
  -----------------------------------------------------------
  WSC                  100.00    610.09   1123.70      16.436
  3                     80.85    202.19    504.82       3.364
  4                     29.19     79.59    432.84       0.488
  5                      0.00      0.00      0.00       0.000
  -----------------------------------------------------------
  System                52.51    891.87   1563.61      20.288
  
  
  ********************
  Link Flow Summary
  ********************
  
  -----------------------------------------------------------------------------
                                 Maximum  Time of Max   Maximum    Max/    Max/
                                  |Flow|   Occurrence   |Veloc|    Full    Full
  Link                 Type          LPS  days hr:min     m/sec    Flow   Depth
  -----------------------------------------------------------------------------
  WS02003066WSF200     CONDUIT    878.35     0  01:40      3.07    0.15    0.30
  WS02006287WS02006284 CONDUIT    820.97     0  01:36      2.53    0.38    0.43
  WS02006284WS02006280 CONDUIT    821.08     0  01:36      2.76    0.34    0.40
  WS02006280WS02006229 CONDUIT    821.09     0  01:36      4.41    0.18    0.35
  WS02006229WS02006228 CONDUIT    859.83     0  01:33      1.71    2.85    1.00
  WS02006256WS02006235 CONDUIT    149.99     0  00:45      2.14    1.59    1.00
  WS02006253WS02006251 CONDUIT    189.34     0  01:33      0.69    0.57    1.00
  WS02006252WS02006251 CONDUIT    400.31     0  06:00      3.19    1.47    1.00
  WS02006251WS02006249 CONDUIT    568.55     0  01:40      1.48    1.64    1.00
  WS02006249WS02006248 CONDUIT    356.44     0  01:31      1.17    1.95    1.00
  WS02006248WS02006247 CONDUIT    349.01     0  04:00      1.14    0.76    1.00
  WS02006247WS02006245 CONDUIT    341.95     0  04:01      1.11    2.71    1.00
  WS02006245WS02006243 CONDUIT    333.39     0  04:01      1.19    0.99    1.00
  WS02006243WS02006242 CONDUIT    321.47     0  05:21      1.03    0.69    1.00
  WS02006242WS02006240 CONDUIT    311.83     0  06:51      0.86    1.24    1.00
  WS02006240WS02006239 CONDUIT    309.46     0  06:51      0.87    0.97    1.00
  WS02006239WS02006238 CONDUIT    308.73     0  06:51      0.85    0.99    1.00
  WS02006238WS02006235 CONDUIT    312.93     0  04:10      0.85    0.70    1.00
  WS02006235WS02006234 CONDUIT    393.14     0  06:10      1.04    4.15    1.00
  WS02006234WS02006232 CONDUIT    393.02     0  06:10      1.02    0.80    1.00
  WS02006232WS02006231 CONDUIT    393.02     0  06:10      1.06    0.82    1.00
  WS02006231WS02006230 CONDUIT    392.84     0  06:10      1.36    5.96    1.00
  WS02006230WS02006229 CONDUIT    402.96     0  06:10      1.05    8.97    1.00
  WS02006228WS02006109 CONDUIT    859.82     0  01:33      1.71    3.76    1.00
  WS02006116WS02004401 CONDUIT    883.63     0  01:37      1.13    1.22    1.00
  WS02006115WS02006116 CONDUIT    883.81     0  01:37      1.13    1.13    1.00
  WS02006113WS02006111 CONDUIT    852.12     0  01:32      2.71    1.02    0.94
  WS02006112WS02006115 CONDUIT    884.27     0  01:37      1.13    0.52    1.00
  WS02006111WS02006112 CONDUIT    852.48     0  01:37      1.93    0.41    0.97
  WS02006110WS02006113 CONDUIT    860.95     0  01:33      1.87    0.78    0.96
  WS02006109WS02006110 CONDUIT    861.01     0  01:33      1.71    1.66    1.00
  WS02004411WS02004412 CONDUIT    877.97     0  01:40      1.20    1.25    0.88
  WS02004401WS02004402 CONDUIT    883.38     0  01:37      1.12    1.06    1.00
  WS02004413WS02003067 CONDUIT    877.99     0  01:40      1.47    0.38    0.71
  WS02004412WS02004413 CONDUIT    877.92     0  01:40      1.15    0.59    0.93
  WS02004410WS02004411 CONDUIT    878.03     0  01:39      1.18    1.20    0.89
  WS02004409WS02004410 CONDUIT    878.26     0  01:39      1.23    1.14    0.90
  WS02004407WS02004409 CONDUIT    883.55     0  01:37      1.83    0.31    0.65
  WS02004406WS02004407 CONDUIT    884.53     0  01:36      1.53    0.40    0.69
  WS02004405WS02004406 CONDUIT    884.44     0  01:37      1.13    1.74    1.00
  WS02004404WS02004405 CONDUIT    884.47     0  01:37      1.13    8.67    1.00
  WS02004403WS02004404 CONDUIT    883.97     0  01:37      1.13    0.64    1.00
  WS02004402WS02004403 CONDUIT    883.61     0  01:37      1.13    1.27    1.00
  WS02004139WS02001211 CONDUIT    369.42     0  07:20      0.81    0.47    0.57
  WS02004138WS02004139 CONDUIT    378.95     0  07:20      3.34    0.08    0.42
  WS02003067WS02003066 CONDUIT    878.34     0  01:40      1.59    0.28    0.49
  WS02001213WS02003059 CONDUIT    364.84     0  07:22      0.78    0.60    0.80
  WS02001212WS02001213 CONDUIT    367.18     0  07:21      1.26    0.57    0.48
  WS02001211WS02001212 CONDUIT    369.56     0  07:21      0.76    0.28    0.63
  WS02003072WS02003073 CONDUIT   1121.99     0  01:53      1.84    2.42    0.53
  WS02003069WS02003072 CONDUIT   1122.07     0  01:52      1.72    0.54    0.56
  WS02003060WS02003069 CONDUIT   1121.89     0  01:52      1.95    0.44    0.51
  WS02003059WS02003060 CONDUIT    364.52     0  07:24      0.82    0.24    0.71
  HS02004901HS02004770 CONDUIT     40.98     0  01:33      0.10    0.15    0.57
  HS02004876HS02004881 CONDUIT    157.88     0  01:36      1.33    1.68    0.17
  HS02004870HS02004876 CONDUIT    127.61     0  01:36      0.90    0.08    0.20
  HS02004842HS02004848 CONDUIT     18.52     0  01:51      0.08    0.01    0.35
  HS02004837HS02004842 CONDUIT     18.98     0  01:52      0.42    0.01    0.36
  HS02004830HS02004837 CONDUIT     74.30     0  01:37      0.68    0.07    0.16
  HS02004824HS02004830 CONDUIT     75.02     0  01:38      0.62    0.10    0.21
  HS02004817HS02004824 CONDUIT    149.90     0  01:41      0.35    0.07    0.62
  HS02004770HS02004777 CONDUIT    211.14     0  01:32      0.52    0.39    0.58
  HS02004799HS02004480 CONDUIT    525.37     0  01:34      1.14    0.66    0.66
  HS02004792HS02004799 CONDUIT    478.53     0  01:33      1.27    0.29    0.54
  HS02004788HS02004792 CONDUIT    277.00     0  01:34      1.34    0.18    0.30
  HS02004785HS02004788 CONDUIT    210.88     0  01:34      0.96    1.59    0.31
  HS02004777HS02004785 CONDUIT    210.79     0  01:33      0.62    0.26    0.49
  HS02004480HS02004478 CONDUIT    623.55     0  01:34      1.66    2.63    0.54
  HS02004479HS02004480 CONDUIT     98.64     0  01:35      0.34    0.10    0.63
  HS02004862HS02004870 CONDUIT     96.84     0  01:37      0.86    0.10    0.16
  HS02004848HS02004852 CONDUIT     45.39     0  01:37      0.56    0.05    0.12
  HS02004856HS02004862 CONDUIT     68.36     0  01:37      0.64    0.07    0.15
  HS02004852HS02004856 CONDUIT     45.48     0  01:38      0.37    0.05    0.18
  HS02004802HS02004478 CONDUIT    205.92     0  01:39      0.56    0.18    0.54
  HS02004478WS02006287 CONDUIT    820.95     0  01:36      2.26    0.23    0.40
  HS02004817HS02004807 CONDUIT    150.94     0  01:41      0.28    0.09    0.79
  HS02004807HS02004802 CONDUIT    204.83     0  01:39      0.50    0.39    0.59
  YS02001759YS02001757 CONDUIT    891.85     0  01:48      1.14    0.63    1.00
  YS02001762YS02001759 CONDUIT    374.62     0  01:45      0.48    0.43    1.00
  YS02001765YS02001762 CONDUIT    374.80     0  01:45      0.48    0.35    1.00
  YS02001770YS02001767 CONDUIT    374.42     0  01:45      0.49    1.48    1.00
  YS02001774YS02001770 CONDUIT    851.17     0  03:12      1.08    0.54    1.00
  YS02001779YS02001774 CONDUIT    851.17     0  03:12      1.08    0.43    1.00
  YS02001649YS02001757 CONDUIT    900.45     0  01:46      1.15    0.55    1.00
  YS02001767YS02001765 CONDUIT    375.06     0  01:45      0.48    0.47    1.00
  YS02006561YS02001783 CONDUIT   1009.09     0  01:35      2.26    0.52    1.00
  YS02001783YS02001784 CONDUIT   1008.92     0  01:35      2.01    1.39    1.00
  YS02001784YS02001785 CONDUIT   1010.10     0  01:35      2.05    2.35    1.00
  YS02001788YS02001790 CONDUIT    974.02     0  03:01      2.43    0.72    1.00
  YS02001790YS02001791 CONDUIT    974.18     0  03:01      3.00    1.06    1.00
  YS02001791YS02001793 CONDUIT    974.18     0  03:01      5.87    0.42    1.00
  YS02001910YS02001907 CONDUIT    868.15     0  03:01      1.11    0.49    1.00
  YS02001786YS02001788 CONDUIT    978.41     0  01:35      2.31    1.89    1.00
  YS02001915YS02001910 CONDUIT    868.09     0  03:01      1.11    0.43    1.00
  YS02001918YS02001915 CONDUIT    390.50     0  01:38      0.57    0.22    1.00
  YS02001923YS02001920 CONDUIT    386.90     0  01:38      0.89    0.17    1.00
  YS02001926YS02001923 CONDUIT    333.43     0  03:01      0.95    0.48    1.00
  YS02001929YS02001926 CONDUIT    330.43     0  03:01      1.03    0.16    1.00
  YS02001920YS02001918 CONDUIT    390.08     0  01:38      0.85    0.38    1.00
  YS02001629YS02163301 CONDUIT    299.28     0  01:30      0.38    0.37    1.00
  YS02001619YS02001622 CONDUIT    541.60     0  03:01      0.90    0.80    1.00
  YS02001622YS02001625 CONDUIT    541.69     0  03:01      0.69    0.29    1.00
  YS02001625YS02001629 CONDUIT    310.00     0  01:30      0.45    0.15    1.00
  YS02163301YS02001633 CONDUIT    304.30     0  01:30      0.39    0.29    1.00
  YS02163601YS02164001 CONDUIT    451.26     0  01:32      0.57    0.40    1.00
  YS02164001YS02001641 CONDUIT    450.96     0  01:32      0.57    0.62    1.00
  YS02001641YS02001644 CONDUIT    451.33     0  01:32      0.57    1.46    1.00
  YS02001647YS02001649 CONDUIT    846.70     0  03:23      1.08    0.45    1.00
  YS02006553YS02006556 CONDUIT    700.54     0  03:51      0.89    0.60    1.00
  YS02006556YS02006558 CONDUIT    700.76     0  03:51      0.89    0.55    1.00
  YSB6556YSB1171       CONDUIT     54.78     0  01:35      0.16    0.06    0.86
  YS02001907YS02006553 CONDUIT    700.44     0  03:51      0.78    0.82    1.00
  YS02006558YS02006561 CONDUIT   1037.32     0  01:35      3.75    2.29    1.00
  YS02001633YS02163601 CONDUIT    451.30     0  01:32      0.57    0.47    1.00
  YS02001644YS02001647 CONDUIT    846.70     0  03:23      1.08    0.50    1.00
  YS02001745YS02001748 CONDUIT    635.92     0  03:01      1.90    0.24    1.00
  YS02001748YS02001751 CONDUIT    636.02     0  03:01      1.44    0.32    1.00
  YS02001751YS02001754 CONDUIT    636.07     0  03:01      1.17    0.31    1.00
  YS02001754YS02001757 CONDUIT    636.35     0  03:01      0.81    0.26    1.00
  YS02001882YS02001884 CONDUIT     41.15     0  01:34      0.18    0.05    1.00
  YS02001884YS02001887 CONDUIT     54.89     0  01:32      0.14    0.07    1.00
  YS02001890YS02001895 CONDUIT    557.99     0  01:37      0.71    0.26    1.00
  YS02001895YS02001898 CONDUIT    558.67     0  01:37      0.71    0.97    1.00
  YS02001898YS02001901 CONDUIT    559.00     0  01:37      0.71    0.36    1.00
  YS02001901YS02001904 CONDUIT    559.21     0  01:37      0.71    0.87    1.00
  YS02001904YS02001907 CONDUIT    559.25     0  01:37      0.71    0.20    1.00
  YS02001887YS02001890 CONDUIT    787.86     0  03:01      1.00    1.35    1.00
  YS02001652YS02001649 CONDUIT    607.51     0  03:01      0.77    0.30    1.00
  YS02001655YS02001652 CONDUIT    607.50     0  03:01      1.26    0.30    1.00
  YS02001658YS02001655 CONDUIT    607.33     0  03:01      1.67    0.26    1.00
  YS02001661YS02001658 CONDUIT    607.31     0  03:01      2.02    0.24    1.00
  YS02001664YS02001661 CONDUIT    807.14     0  01:50      1.90    0.25    0.86
  YSB1154YSB6556       CONDUIT     54.36     0  01:35      0.17    0.10    0.79
  YSB1174YSB1171       CONDUIT     45.33     0  01:31      0.13    0.07    0.90
  YSB1171HS02004479    CONDUIT     98.35     0  01:34      0.54    0.07    0.73
  HS02004881HS02006253 CONDUIT    174.50     0  01:36      2.52    0.03    0.45
  YS02001793JiankangQianchi CONDUIT   1014.48     0  01:34     11.74    0.08    1.00
  YS02001757CaochengTiaoxuchi CONDUIT   2174.30     0  01:48      3.84    0.96    1.00
  WSF200WS02003060     CONDUIT    879.93     0  01:40      2.11    0.20    0.41
  1                    CONDUIT   1123.70     0  01:54      3.43    0.39    0.43
  2                    CONDUIT    432.84     0  01:40      6.74    1.04    0.93
  3                    CONDUIT    504.82     0  06:10      9.82    0.80    0.68
  4                    CONDUIT      0.00     0  00:00      0.00    0.00    0.00
  CC-Pump-1            PUMP       200.00     0  04:00              1.00
  CC-Pump-2            PUMP       200.00     0  01:30              1.00
  JK-Pump-1            PUMP       300.00     0  04:30              1.00
  JK-Pump-2            PUMP       300.00     0  03:20              1.00
  XR-Pump-1            PUMP        95.00     0  00:00              1.00
  XR-Pump-2            PUMP        95.00     0  00:00              1.00
  XR-Pump-3            PUMP        95.00     0  00:00              1.00
  XR-Pump-4            PUMP        95.00     0  03:50              1.00
  
  
  ***************************
  Flow Classification Summary
  ***************************
  
  -------------------------------------------------------------------------------------
                      Adjusted    ---------- Fraction of Time in Flow Class ---------- 
                       /Actual         Up    Down  Sub   Sup   Up    Down  Norm  Inlet 
  Conduit               Length    Dry  Dry   Dry   Crit  Crit  Crit  Crit  Ltd   Ctrl  
  -------------------------------------------------------------------------------------
  WS02003066WSF200        1.00   0.05  0.00  0.00  0.00  0.95  0.00  0.00  0.56  0.00
  WS02006287WS02006284    1.00   0.02  0.02  0.00  0.61  0.35  0.00  0.00  0.61  0.00
  WS02006284WS02006280    1.00   0.04  0.00  0.00  0.00  0.00  0.00  0.96  0.00  0.00
  WS02006280WS02006229    1.00   0.04  0.00  0.00  0.00  0.04  0.00  0.91  0.00  0.00
  WS02006229WS02006228    1.00   0.00  0.00  0.00  1.00  0.00  0.00  0.00  0.00  0.00
  WS02006256WS02006235    1.00   0.01  0.00  0.00  0.99  0.00  0.00  0.00  0.00  0.00
  WS02006253WS02006251    1.00   0.01  0.03  0.00  0.96  0.00  0.01  0.00  0.00  0.00
  WS02006252WS02006251    1.00   0.05  0.00  0.00  0.00  0.00  0.95  0.00  0.00  0.00
  WS02006251WS02006249    1.00   0.00  0.00  0.00  1.00  0.00  0.00  0.00  0.22  0.00
  WS02006249WS02006248    1.00   0.00  0.00  0.00  0.86  0.00  0.14  0.00  0.00  0.00
  WS02006248WS02006247    1.00   0.00  0.00  0.00  0.99  0.00  0.00  0.01  0.11  0.00
  WS02006247WS02006245    1.00   0.00  0.00  0.00  0.97  0.00  0.00  0.03  0.00  0.00
  WS02006245WS02006243    1.00   0.01  0.00  0.00  0.97  0.00  0.00  0.03  0.01  0.00
  WS02006243WS02006242    1.00   0.01  0.00  0.00  0.98  0.00  0.00  0.01  0.05  0.00
  WS02006242WS02006240    1.00   0.01  0.01  0.00  0.98  0.00  0.00  0.00  0.00  0.00
  WS02006240WS02006239    1.00   0.02  0.00  0.00  0.97  0.00  0.00  0.01  0.01  0.00
  WS02006239WS02006238    1.00   0.01  0.00  0.00  0.99  0.00  0.00  0.00  0.01  0.00
  WS02006238WS02006235    1.00   0.01  0.00  0.00  0.99  0.00  0.00  0.00  0.00  0.00
  WS02006235WS02006234    1.00   0.01  0.00  0.00  0.98  0.00  0.00  0.00  0.00  0.00
  WS02006234WS02006232    1.00   0.01  0.00  0.00  0.98  0.00  0.00  0.00  0.00  0.00
  WS02006232WS02006231    1.00   0.01  0.00  0.00  0.98  0.00  0.00  0.00  0.00  0.00
  WS02006231WS02006230    1.00   0.02  0.00  0.00  0.55  0.00  0.43  0.00  0.00  0.00
  WS02006230WS02006229    1.00   0.00  0.00  0.00  0.99  0.00  0.00  0.01  0.00  0.00
  WS02006228WS02006109    1.00   0.00  0.00  0.00  1.00  0.00  0.00  0.00  0.00  0.00
  WS02006116WS02004401    1.00   0.03  0.00  0.00  0.97  0.00  0.00  0.00  0.00  0.00
  WS02006115WS02006116    1.00   0.03  0.00  0.00  0.96  0.00  0.00  0.01  0.00  0.00
  WS02006113WS02006111    1.00   0.01  0.00  0.00  0.07  0.92  0.00  0.00  0.13  0.00
  WS02006112WS02006115    1.00   0.01  0.01  0.00  0.97  0.00  0.01  0.00  0.00  0.00
  WS02006111WS02006112    1.00   0.01  0.00  0.00  0.99  0.00  0.00  0.00  0.79  0.00
  WS02006110WS02006113    1.00   0.00  0.01  0.00  0.99  0.00  0.00  0.00  0.00  0.00
  WS02006109WS02006110    1.00   0.00  0.00  0.00  1.00  0.00  0.00  0.00  0.00  0.00
  WS02004411WS02004412    1.00   0.04  0.00  0.00  0.96  0.00  0.00  0.00  0.00  0.00
  WS02004401WS02004402    1.00   0.03  0.00  0.00  0.97  0.00  0.00  0.00  0.00  0.00
  WS02004413WS02003067    1.00   0.04  0.00  0.00  0.00  0.00  0.95  0.00  0.00  0.00
  WS02004412WS02004413    1.00   0.04  0.00  0.00  0.96  0.00  0.00  0.00  0.01  0.00
  WS02004410WS02004411    1.00   0.04  0.00  0.00  0.96  0.00  0.00  0.00  0.00  0.00
  WS02004409WS02004410    1.00   0.04  0.00  0.00  0.96  0.00  0.00  0.00  0.00  0.00
  WS02004407WS02004409    1.00   0.04  0.00  0.00  0.96  0.00  0.00  0.00  0.86  0.00
  WS02004406WS02004407    1.00   0.00  0.04  0.00  0.96  0.00  0.00  0.00  0.00  0.00
  WS02004405WS02004406    1.00   0.00  0.00  0.00  1.00  0.00  0.00  0.00  0.04  0.00
  WS02004404WS02004405    1.00   0.00  0.00  0.00  1.00  0.00  0.00  0.00  0.00  0.00
  WS02004403WS02004404    1.00   0.00  0.03  0.00  0.97  0.00  0.00  0.00  0.01  0.00
  WS02004402WS02004403    1.00   0.03  0.00  0.00  0.97  0.00  0.00  0.00  0.00  0.00
  WS02004139WS02001211    1.00   0.00  0.00  0.00  1.00  0.00  0.00  0.00  0.00  0.00
  WS02004138WS02004139    1.00   0.00  0.00  0.00  1.00  0.00  0.00  0.00  1.00  0.00
  WS02003067WS02003066    1.00   0.05  0.00  0.00  0.95  0.00  0.00  0.00  0.00  0.00
  WS02001213WS02003059    1.00   0.00  0.00  0.00  1.00  0.00  0.00  0.00  0.00  0.00
  WS02001212WS02001213    1.00   0.00  0.00  0.00  0.88  0.00  0.12  0.00  0.00  0.00
  WS02001211WS02001212    1.00   0.00  0.00  0.00  1.00  0.00  0.00  0.00  0.00  0.00
  WS02003072WS02003073    1.00   0.00  0.00  0.00  0.00  0.00  0.00  1.00  0.00  0.00
  WS02003069WS02003072    1.00   0.00  0.00  0.00  1.00  0.00  0.00  0.00  0.18  0.00
  WS02003060WS02003069    1.00   0.00  0.00  0.00  1.00  0.00  0.00  0.00  0.07  0.00
  WS02003059WS02003060    1.00   0.00  0.00  0.00  1.00  0.00  0.00  0.00  0.01  0.00
  HS02004901HS02004770    1.00   0.04  0.00  0.00  0.96  0.00  0.00  0.00  0.00  0.00
  HS02004876HS02004881    1.00   0.00  0.00  0.00  0.80  0.20  0.00  0.00  0.00  0.00
  HS02004870HS02004876    1.00   0.00  0.00  0.00  1.00  0.00  0.00  0.00  0.95  0.00
  HS02004842HS02004848    1.00   0.00  0.04  0.00  0.96  0.00  0.00  0.00  0.54  0.00
  HS02004837HS02004842    1.00   0.00  0.00  0.00  1.00  0.00  0.00  0.00  0.11  0.00
  HS02004830HS02004837    1.00   0.00  0.00  0.00  1.00  0.00  0.00  0.00  0.99  0.00
  HS02004824HS02004830    1.00   0.00  0.00  0.00  1.00  0.00  0.00  0.00  0.03  0.00
  HS02004817HS02004824    1.00   0.00  0.00  0.00  1.00  0.00  0.00  0.00  0.88  0.00
  HS02004770HS02004777    1.00   0.00  0.04  0.00  0.96  0.00  0.00  0.00  0.02  0.00
  HS02004799HS02004480    1.00   0.00  0.01  0.00  0.96  0.00  0.04  0.00  0.00  0.00
  HS02004792HS02004799    1.00   0.00  0.00  0.00  1.00  0.00  0.00  0.00  0.98  0.00
  HS02004788HS02004792    1.00   0.00  0.00  0.00  1.00  0.00  0.00  0.00  0.98  0.00
  HS02004785HS02004788    1.00   0.00  0.00  0.00  1.00  0.00  0.00  0.00  0.00  0.00
  HS02004777HS02004785    1.00   0.00  0.00  0.00  1.00  0.00  0.00  0.00  0.11  0.00
  HS02004480HS02004478    1.00   0.04  0.00  0.00  0.67  0.00  0.00  0.29  0.00  0.00
  HS02004479HS02004480    1.00   0.01  0.00  0.00  0.99  0.00  0.00  0.00  0.11  0.00
  HS02004862HS02004870    1.00   0.00  0.00  0.00  1.00  0.00  0.00  0.00  0.02  0.00
  HS02004848HS02004852    1.00   0.04  0.00  0.00  0.96  0.00  0.00  0.00  0.82  0.00
  HS02004856HS02004862    1.00   0.00  0.04  0.00  0.96  0.00  0.00  0.00  0.84  0.00
  HS02004852HS02004856    1.00   0.04  0.00  0.00  0.96  0.00  0.00  0.00  0.70  0.00
  HS02004802HS02004478    1.00   0.04  0.00  0.00  0.96  0.00  0.00  0.00  0.02  0.00
  HS02004478WS02006287    1.00   0.04  0.00  0.00  0.73  0.23  0.00  0.00  0.58  0.00
  HS02004817HS02004807    1.00   0.00  0.04  0.00  0.96  0.00  0.00  0.00  0.01  0.00
  HS02004807HS02004802    1.00   0.04  0.00  0.00  0.96  0.00  0.00  0.00  0.00  0.00
  YS02001759YS02001757    1.00   0.00  0.00  0.00  1.00  0.00  0.00  0.00  0.15  0.00
  YS02001762YS02001759    1.00   0.00  0.00  0.00  1.00  0.00  0.00  0.00  0.02  0.00
  YS02001765YS02001762    1.00   0.00  0.00  0.00  1.00  0.00  0.00  0.00  0.13  0.00
  YS02001770YS02001767    1.00   0.00  0.00  0.00  1.00  0.00  0.00  0.00  0.00  0.00
  YS02001774YS02001770    1.00   0.00  0.04  0.00  0.96  0.00  0.00  0.00  0.02  0.00
  YS02001779YS02001774    1.00   0.00  0.00  0.00  1.00  0.00  0.00  0.00  0.16  0.00
  YS02001649YS02001757    1.00   0.00  0.00  0.00  1.00  0.00  0.00  0.00  0.15  0.00
  YS02001767YS02001765    1.00   0.00  0.00  0.00  1.00  0.00  0.00  0.00  0.00  0.00
  YS02006561YS02001783    1.00   0.05  0.00  0.00  0.60  0.36  0.00  0.00  0.43  0.00
  YS02001783YS02001784    1.00   0.00  0.05  0.00  0.95  0.00  0.00  0.00  0.00  0.00
  YS02001784YS02001785    1.00   0.00  0.00  0.00  1.00  0.00  0.00  0.00  0.16  0.00
  YS02001788YS02001790    1.00   0.00  0.00  0.00  0.67  0.33  0.00  0.00  0.34  0.00
  YS02001790YS02001791    1.00   0.00  0.00  0.00  0.63  0.37  0.00  0.00  0.25  0.00
  YS02001791YS02001793    1.00   0.00  0.00  0.00  0.66  0.34  0.00  0.00  0.02  0.00
  YS02001910YS02001907    1.00   0.00  0.00  0.00  0.99  0.00  0.00  0.00  0.12  0.00
  YS02001786YS02001788    1.00   0.00  0.00  0.00  0.65  0.35  0.00  0.00  0.00  0.00
  YS02001915YS02001910    1.00   0.00  0.00  0.00  0.99  0.01  0.00  0.00  0.13  0.00
  YS02001918YS02001915    1.00   0.00  0.00  0.00  1.00  0.00  0.00  0.00  0.45  0.00
  YS02001923YS02001920    1.00   0.00  0.00  0.00  1.00  0.00  0.00  0.00  0.64  0.00
  YS02001926YS02001923    1.00   0.00  0.01  0.00  0.32  0.00  0.67  0.00  0.00  0.00
  YS02001929YS02001926    1.00   0.00  0.04  0.00  0.96  0.00  0.00  0.00  0.56  0.00
  YS02001920YS02001918    1.00   0.00  0.00  0.00  1.00  0.00  0.00  0.00  0.00  0.00
  YS02001629YS02163301    1.00   0.04  0.00  0.00  0.96  0.00  0.00  0.00  0.00  0.00
  YS02001619YS02001622    1.00   0.04  0.00  0.00  0.96  0.00  0.00  0.00  0.00  0.00
  YS02001622YS02001625    1.00   0.04  0.00  0.00  0.96  0.00  0.00  0.00  0.03  0.00
  YS02001625YS02001629    1.00   0.04  0.01  0.00  0.95  0.00  0.01  0.00  0.00  0.00
  YS02163301YS02001633    1.00   0.00  0.04  0.00  0.96  0.00  0.00  0.00  0.00  0.00
  YS02163601YS02164001    1.00   0.00  0.01  0.00  0.99  0.00  0.00  0.00  0.00  0.00
  YS02164001YS02001641    1.00   0.00  0.01  0.00  0.99  0.00  0.00  0.00  0.06  0.00
  YS02001641YS02001644    1.00   0.00  0.00  0.00  1.00  0.00  0.00  0.00  0.00  0.00
  YS02001647YS02001649    1.00   0.00  0.04  0.00  0.96  0.00  0.00  0.00  0.01  0.00
  YS02006553YS02006556    1.00   0.00  0.00  0.00  1.00  0.00  0.00  0.00  0.03  0.00
  YS02006556YS02006558    1.00   0.00  0.00  0.00  1.00  0.00  0.00  0.00  0.00  0.00
  YSB6556YSB1171          1.00   0.01  0.03  0.00  0.96  0.00  0.00  0.00  0.00  0.00
  YS02001907YS02006553    1.00   0.00  0.00  0.00  1.00  0.00  0.00  0.00  0.00  0.00
  YS02006558YS02006561    1.00   0.05  0.00  0.00  0.35  0.61  0.00  0.00  0.34  0.00
  YS02001633YS02163601    1.00   0.00  0.00  0.00  1.00  0.00  0.00  0.00  0.15  0.00
  YS02001644YS02001647    1.00   0.00  0.04  0.00  0.96  0.00  0.00  0.00  0.00  0.00
  YS02001745YS02001748    1.00   0.00  0.00  0.00  0.94  0.00  0.00  0.06  0.00  0.00
  YS02001748YS02001751    1.00   0.00  0.00  0.00  0.99  0.01  0.00  0.00  0.13  0.00
  YS02001751YS02001754    1.00   0.00  0.00  0.00  0.95  0.00  0.00  0.05  0.01  0.00
  YS02001754YS02001757    1.00   0.00  0.00  0.00  1.00  0.00  0.00  0.00  0.16  0.00
  YS02001882YS02001884    1.00   0.04  0.00  0.00  0.96  0.00  0.00  0.00  0.00  0.00
  YS02001884YS02001887    1.00   0.01  0.02  0.00  0.97  0.00  0.00  0.00  0.00  0.00
  YS02001890YS02001895    1.00   0.00  0.04  0.00  0.96  0.00  0.00  0.00  0.00  0.00
  YS02001895YS02001898    1.00   0.04  0.00  0.00  0.95  0.00  0.00  0.00  0.00  0.00
  YS02001898YS02001901    1.00   0.04  0.00  0.00  0.96  0.00  0.00  0.00  0.00  0.00
  YS02001901YS02001904    1.00   0.04  0.00  0.00  0.96  0.00  0.00  0.00  0.00  0.00
  YS02001904YS02001907    1.00   0.00  0.04  0.00  0.96  0.00  0.00  0.00  0.00  0.00
  YS02001887YS02001890    1.00   0.00  0.00  0.00  0.99  0.00  0.00  0.00  0.00  0.00
  YS02001652YS02001649    1.00   0.00  0.00  0.00  1.00  0.00  0.00  0.00  0.15  0.00
  YS02001655YS02001652    1.00   0.00  0.00  0.00  0.95  0.00  0.00  0.05  0.01  0.00
  YS02001658YS02001655    1.00   0.00  0.04  0.00  0.95  0.01  0.00  0.00  0.01  0.00
  YS02001661YS02001658    1.00   0.04  0.00  0.00  0.94  0.02  0.00  0.00  0.00  0.00
  YS02001664YS02001661    1.00   0.04  0.00  0.00  0.94  0.02  0.00  0.00  0.07  0.00
  YSB1154YSB6556          1.00   0.04  0.00  0.00  0.96  0.00  0.00  0.00  0.01  0.00
  YSB1174YSB1171          1.00   0.01  0.01  0.00  0.98  0.00  0.00  0.00  0.00  0.00
  YSB1171HS02004479       1.00   0.01  0.00  0.00  0.99  0.00  0.00  0.00  0.10  0.00
  HS02004881HS02006253    1.00   0.01  0.00  0.00  0.58  0.07  0.00  0.34  0.51  0.00
  YS02001793JiankangQianchi    1.00   0.00  0.00  0.00  0.83  0.17  0.00  0.00  0.30  0.00
  YS02001757CaochengTiaoxuchi    1.00   0.00  0.05  0.00  0.90  0.05  0.00  0.00  0.00  0.00
  WSF200WS02003060        1.00   0.00  0.05  0.00  0.61  0.34  0.00  0.00  0.21  0.00
  1                       1.00   0.00  0.00  0.00  0.00  1.00  0.00  0.00  0.43  0.00
  2                       1.00   0.71  0.00  0.00  0.00  0.29  0.00  0.00  0.09  0.00
  3                       1.00   0.19  0.00  0.00  0.00  0.81  0.00  0.00  0.06  0.00
  4                       1.00   1.00  0.00  0.00  0.00  0.00  0.00  0.00  0.00  0.00
  
  
  *************************
  Conduit Surcharge Summary
  *************************
  
  ----------------------------------------------------------------------------
                                                           Hours        Hours 
                         --------- Hours Full --------   Above Full   Capacity
  Conduit                Both Ends  Upstream  Dnstream   Normal Flow   Limited
  ----------------------------------------------------------------------------
  WS02006229WS02006228        2.60      2.85      2.60      4.57         2.60
  WS02006256WS02006235        6.58      6.58      7.05      3.51         0.14
  WS02006253WS02006251        0.18      0.18      0.21      0.01         0.01
  WS02006252WS02006251        0.62      0.62      1.44      1.23         0.01
  WS02006251WS02006249        0.14      0.19      0.14      0.77         0.14
  WS02006249WS02006248        0.11      0.11      0.14      2.82         0.01
  WS02006248WS02006247        0.16      0.16      0.26      0.01         0.01
  WS02006247WS02006245        0.27      0.28      0.27      4.01         0.20
  WS02006245WS02006243        0.28      0.28      0.33      0.01         0.01
  WS02006243WS02006242        0.40      0.40      0.99      0.01         0.01
  WS02006242WS02006240        0.67      0.68      1.45      1.25         0.01
  WS02006240WS02006239        0.77      0.77      0.92      0.01         0.01
  WS02006239WS02006238        1.41      1.41      1.60      0.01         0.01
  WS02006238WS02006235        1.45      1.45      1.92      0.01         0.02
  WS02006235WS02006234        0.89      0.89      1.19      5.65         0.14
  WS02006234WS02006232        1.00      1.00      2.35      0.01         0.01
  WS02006232WS02006231        0.93      0.93      2.35      0.01         0.01
  WS02006231WS02006230        0.92      0.92      0.96      6.22         0.13
  WS02006230WS02006229        3.53      4.20      3.53      6.66         3.34
  WS02006228WS02006109        2.72      3.23      2.72      5.60         2.72
  WS02006116WS02004401        0.71      0.71      0.73      0.62         0.60
  WS02006115WS02006116        0.44      0.44      0.47      0.35         0.34
  WS02006113WS02006111        0.01      0.01      0.01      0.16         0.01
  WS02006112WS02006115        0.40      0.40      1.87      0.01         0.01
  WS02006111WS02006112        0.01      0.01      4.78      0.01         0.01
  WS02006110WS02006113        0.01      0.01      3.04      0.01         0.01
  WS02006109WS02006110        1.39      1.39      3.23      1.39         0.01
  WS02004411WS02004412        0.01      0.01      0.01      0.68         0.01
  WS02004401WS02004402        0.73      0.73      0.78      0.22         0.22
  WS02004410WS02004411        0.01      0.01      0.01      0.57         0.01
  WS02004409WS02004410        0.01      0.01      0.01      0.36         0.01
  WS02004406WS02004407        0.01      0.01      0.95      0.01         0.01
  WS02004405WS02004406        0.95      1.01      0.95      1.81         0.95
  WS02004404WS02004405        1.01      1.07      1.01      6.44         1.00
  WS02004403WS02004404        0.80      0.80      1.07      0.01         0.01
  WS02004402WS02004403        0.78      0.78      0.80      0.70         0.69
  WS02003072WS02003073        0.01      0.01      0.01      5.76         0.01
  HS02004876HS02004881        0.01      0.01      0.01      0.86         0.01
  HS02004817HS02004824        0.01      0.01      0.32      0.01         0.01
  HS02004785HS02004788        0.01      0.01      0.01      0.81         0.01
  HS02004480HS02004478        0.01      0.01      0.01      1.81         0.01
  HS02004817HS02004807        0.01      0.01      0.32      0.01         0.01
  YS02001759YS02001757        6.35      6.35      6.36      0.01         0.01
  YS02001762YS02001759        6.34      6.34      6.35      0.01         0.01
  YS02001765YS02001762        6.34      6.34      6.34      0.01         0.01
  YS02001770YS02001767        6.33      6.33      6.33      1.81         0.54
  YS02001774YS02001770        6.33      6.33      6.34      0.01         0.01
  YS02001779YS02001774        6.31      6.31      6.34      0.01         0.01
  YS02001649YS02001757        6.34      6.34      6.36      0.01         0.01
  YS02001767YS02001765        6.33      6.33      6.34      0.01         0.01
  YS02006561YS02001783        2.45      2.45      2.94      0.01         0.01
  YS02001783YS02001784        2.94      2.94      3.01      2.81         2.74
  YS02001784YS02001785        2.92      3.01      2.92      3.52         2.92
  YS02001788YS02001790        2.89      2.89      4.15      0.01         0.01
  YS02001790YS02001791        4.15      4.15      4.26      2.31         2.30
  YS02001791YS02001793        4.26      4.26      4.50      0.01         0.01
  YS02001910YS02001907        2.74      2.74      3.05      0.01         0.01
  YS02001786YS02001788        2.89      2.92      2.89      3.16         2.89
  YS02001915YS02001910        2.56      2.56      2.74      0.01         0.01
  YS02001918YS02001915        2.34      2.34      2.56      0.01         0.01
  YS02001923YS02001920        2.17      2.17      2.38      0.01         0.01
  YS02001926YS02001923        0.01      0.01      0.01      0.01         0.01
  YS02001929YS02001926        0.01      0.01      0.01      0.01         0.01
  YS02001920YS02001918        2.34      2.34      2.38      0.01         0.01
  YS02001629YS02163301        6.33      6.33      6.33      0.01         0.01
  YS02001619YS02001622        6.31      6.31      6.31      0.01         0.02
  YS02001622YS02001625        6.31      6.31      6.32      0.01         0.01
  YS02001625YS02001629        6.31      6.31      6.32      0.01         0.01
  YS02163301YS02001633        6.33      6.33      6.33      0.01         0.01
  YS02163601YS02164001        6.33      6.33      6.34      0.01         0.01
  YS02164001YS02001641        6.33      6.33      6.34      0.01         0.02
  YS02001641YS02001644        6.34      6.34      6.34      3.05         3.12
  YS02001647YS02001649        6.32      6.32      6.34      0.01         0.01
  YS02006553YS02006556        2.90      2.90      3.08      0.01         0.01
  YS02006556YS02006558        2.97      2.97      3.13      0.01         0.01
  YSB6556YSB1171              0.01      0.01      0.43      0.01         0.01
  YS02001907YS02006553        3.54      3.54      3.73      0.01         0.01
  YS02006558YS02006561        2.61      2.88      2.61      3.40         2.61
  YS02001633YS02163601        6.33      6.33      6.34      0.01         0.01
  YS02001644YS02001647        6.32      6.32      6.34      0.01         0.01
  YS02001745YS02001748        0.81      0.81      6.28      0.01         0.01
  YS02001748YS02001751        6.29      6.29      6.30      0.01         0.01
  YS02001751YS02001754        6.30      6.30      6.31      0.01         0.01
  YS02001754YS02001757        6.31      6.31      6.36      0.01         0.01
  YS02001882YS02001884        2.57      2.57      2.60      0.01         0.01
  YS02001884YS02001887        2.65      2.65      2.68      0.01         0.01
  YS02001890YS02001895        2.54      2.54      2.76      0.01         0.01
  YS02001895YS02001898        2.53      2.53      2.54      0.01         0.01
  YS02001898YS02001901        2.55      2.55      2.64      0.01         0.01
  YS02001901YS02001904        2.62      2.62      2.64      0.01         0.01
  YS02001904YS02001907        2.62      2.62      3.10      0.01         0.01
  YS02001887YS02001890        2.70      2.70      2.73      1.55         0.01
  YS02001652YS02001649        6.32      6.32      6.34      0.01         0.01
  YS02001655YS02001652        6.30      6.30      6.31      0.01         0.01
  YS02001658YS02001655        6.29      6.29      6.30      0.01         0.01
  YS02001661YS02001658        1.19      1.19      6.29      0.01         0.01
  YS02001664YS02001661        0.01      0.01      2.70      0.01         0.01
  YSB1174YSB1171              0.01      0.01      0.16      0.01         0.01
  YS02001793JiankangQianchi        4.42      4.42      5.81      0.01         0.01
  YS02001757CaochengTiaoxuchi        5.87      5.87      6.36      0.01         0.01
  2                           0.01      0.01      0.04      0.04         0.01
  
  
  ***************
  Pumping Summary
  ***************
  
  ---------------------------------------------------------------------------------------------------------
                                                  Min       Avg       Max     Total     Power    % Time Off
                        Percent   Number of      Flow      Flow      Flow    Volume     Usage    Pump Curve
  Pump                 Utilized   Start-Ups       LPS       LPS       LPS  10^6 ltr     Kw-hr    Low   High
  ---------------------------------------------------------------------------------------------------------
  CC-Pump-1               48.93           7      0.00    123.98    200.00     1.680      1.80    0.0    4.8
  CC-Pump-2               47.80           7      0.00    132.82    200.00     1.716      2.20    0.0    7.0
  JK-Pump-1               44.68           4      0.00    176.19    300.00     2.133     17.56    0.0    0.0
  JK-Pump-2               57.44           5      0.00    189.13    300.00     2.887     27.31    0.0    0.0
  XR-Pump-1               89.35           8      0.00     68.89     95.00     1.853     13.96    0.0    0.0
  XR-Pump-2               82.97           7      0.00     67.16     95.00     1.682     12.39    0.0    0.0
  XR-Pump-3               82.97           6      0.00     75.78     95.00     1.881     14.16    0.0    0.0
  XR-Pump-4               55.31           6      0.00     73.20     95.00     1.111      5.74    0.0    0.0
  

  Analysis begun on:  Wed Dec 22 10:59:56 2021
  Analysis ended on:  Wed Dec 22 10:59:59 2021
  Total elapsed time: 00:00:03