
  EPA STORM WATER MANAGEMENT MODEL - VERSION 5.1 (Build 5.3.0.dev0)
  --------------------------------------------------------------

  WARNING 04: minimum elevation drop used for Conduit WS02004404WS02004405
  WARNING 03: negative offset ignored for Link YS02001904YS02001907
  
  *********************************************************
  NOTE: The summary statistics displayed in this report are
  based on results found at every computational time step,  
  not just on results from each reporting time step.
  *********************************************************
  
  ****************
  Analysis Options
  ****************
  Flow Units ............... LPS
  Process Models:
    Rainfall/Runoff ........ YES
    RDII ................... NO
    Snowmelt ............... NO
    Groundwater ............ NO
    Flow Routing ........... YES
    Ponding Allowed ........ NO
    Water Quality .......... NO
  Infiltration Method ...... HORTON
  Flow Routing Method ...... DYNWAVE
  Surcharge Method ......... EXTRAN
  Starting Date ............ 08/28/2015 08:00:00
  Ending Date .............. 08/28/2015 15:50:00
  Antecedent Dry Days ...... 8.0
  Report Time Step ......... 00:01:00
  Wet Time Step ............ 00:01:00
  Dry Time Step ............ 00:01:00
  Routing Time Step ........ 5.00 sec
  Variable Time Step ....... YES
  Maximum Trials ........... 8
  Number of Threads ........ 4
  Head Tolerance ........... 0.001500 m
  
  
  **************************        Volume         Depth
  Runoff Quantity Continuity     hectare-m            mm
  **************************     ---------       -------
  Total Precipitation ......        10.887        23.836
  Evaporation Loss .........         0.000         0.000
  Infiltration Loss ........         2.344         5.132
  Surface Runoff ...........         7.303        15.990
  Final Storage ............         1.241         2.717
  Continuity Error (%) .....        -0.012
  
  
  **************************        Volume        Volume
  Flow Routing Continuity        hectare-m      10^6 ltr
  **************************     ---------     ---------
  Dry Weather Inflow .......         0.616         6.165
  Wet Weather Inflow .......         7.302        73.019
  Groundwater Inflow .......         0.000         0.000
  RDII Inflow ..............         0.000         0.000
  External Inflow ..........         0.102         1.024
  External Outflow .........         2.114        21.143
  Flooding Loss ............         5.392        53.922
  Evaporation Loss .........         0.000         0.000
  Exfiltration Loss ........         0.000         0.000
  Initial Stored Volume ....         0.076         0.761
  Final Stored Volume ......         0.647         6.467
  Continuity Error (%) .....        -0.698
  
  
  *************************
  Highest Continuity Errors
  *************************
  Node HS02004842 (8.73%)
  Node YS02001884 (8.15%)
  Node JK-storage (-3.93%)
  Node HS02004817 (1.69%)
  Node YSB1171 (1.47%)
  
  
  ***************************
  Time-Step Critical Elements
  ***************************
  Link 3 (43.83%)
  Link WS02006252WS02006251 (40.15%)
  Link WS02006280WS02006229 (5.07%)
  Link WS02006238WS02006235 (3.24%)
  Link YS02001661YS02001658 (1.31%)
  
  
  ********************************
  Highest Flow Instability Indexes
  ********************************
  Link WS02006113WS02006111 (36)
  Link YS02163301YS02001633 (28)
  Link YS02163601YS02164001 (28)
  Link YS02001619YS02001622 (28)
  Link YS02001629YS02163301 (27)
  
  
  *************************
  Routing Time Step Summary
  *************************
  Minimum Time Step           :     0.31 sec
  Average Time Step           :     0.84 sec
  Maximum Time Step           :     5.00 sec
  Percent in Steady State     :    -0.00
  Average Iterations per Step :     3.73
  Percent Not Converging      :    11.92
  
  
  ***************************
  Subcatchment Runoff Summary
  ***************************
  
  ------------------------------------------------------------------------------------------------------------------------------
                            Total      Total      Total      Total     Imperv       Perv      Total       Total     Peak  Runoff
                           Precip      Runon       Evap      Infil     Runoff     Runoff     Runoff      Runoff   Runoff   Coeff
  Subcatchment                 mm         mm         mm         mm         mm         mm         mm    10^6 ltr      LPS
  ------------------------------------------------------------------------------------------------------------------------------
  sub0                      23.84       0.00       0.00       1.03      20.90       0.64      21.54        0.02     4.74   0.904
  sub1                      23.84       0.00       0.00       1.74      19.95       0.88      20.83        0.14    30.53   0.874
  sub2                      23.84       0.00       0.00       6.87      14.10       1.95      16.05        0.15    28.29   0.673
  sub3                      23.84       0.00       0.00       7.14      14.06       1.68      15.74        0.35    61.76   0.660
  sub4                      23.84       0.00       0.00       1.87      19.78       0.75      20.54        0.43    72.83   0.862
  sub5                      23.84       0.00       0.00       1.08      20.85       0.59      21.44        0.24    54.28   0.899
  sub7                      23.84       0.00       0.00       1.37      20.44       0.77      21.21        0.07    17.57   0.890
  sub8                      23.84       0.00       0.00       1.38      20.42       0.76      21.19        0.14    32.08   0.889
  sub9                      23.84       0.00       0.00       1.39      20.42       0.76      21.18        0.10    23.95   0.889
  sub10                     23.84       0.00       0.00       1.24      20.63       0.67      21.30        0.23    53.40   0.894
  sub11                     23.84       0.00       0.00       1.22      20.65       0.69      21.34        0.25    59.71   0.895
  sub12                     23.84       0.00       0.00       1.98      19.55       1.11      20.66        0.18    46.17   0.867
  sub14                     23.84       0.00       0.00       1.39      20.42       0.76      21.18        0.20    47.08   0.888
  sub15                     23.84       0.00       0.00       5.16      15.70       1.99      17.70        0.30    64.58   0.742
  sub16                     23.84       0.00       0.00       5.46      15.05       2.40      17.45        0.18    41.69   0.732
  sub17                     23.84       0.00       0.00       5.32      15.27       2.31      17.58        0.15    34.22   0.738
  sub22                     23.84       0.00       0.00       7.63      12.80       2.62      15.42        0.97   202.91   0.647
  sub23                     23.84       0.00       0.00       6.37      14.15       2.45      16.60        0.79   171.10   0.696
  sub60                     23.84       0.00       0.00       2.46      17.68       0.40      18.08        5.48   635.50   0.759
  sub61                     23.84       0.00       0.00       3.48      17.44       0.57      18.00        5.55   687.97   0.755
  sub62                     23.84       0.00       0.00       1.52      19.11       0.39      19.50        5.99   726.55   0.818
  sub63                     23.84       0.00       0.00       6.22      15.11       0.70      15.81        4.78   606.27   0.663
  sub64                     23.84       0.00       0.00       3.15      17.01       0.42      17.43        5.30   611.50   0.731
  sub65                     23.84       0.00       0.00       2.70      17.34       0.40      17.73        5.45   625.37   0.744
  sub66                     23.84       0.00       0.00       6.42      14.44       0.49      14.93        4.58   541.58   0.626
  sub67                     23.84       0.00       0.00       1.46      19.71       0.45      20.16        6.22   787.40   0.846
  sub68                     23.84       0.00       0.00       2.78      18.22       0.56      18.78        5.78   724.10   0.788
  sub69                     23.84       0.00       0.00       2.86      18.50       0.72      19.22        4.49   586.55   0.806
  sub70                     23.84      19.62       0.00       9.95      26.14       3.78      29.92        6.85   801.71   0.689
  sub71                     23.84       0.00       0.00       1.54      18.81       0.36      19.18        4.53   536.91   0.805
  sub72                     23.84       0.00       0.00       1.45      16.32       0.22      16.55        3.37   330.66   0.694
  sub73                     23.84      29.13       0.00       9.95      31.58       5.28      36.86        8.66   884.85   0.696
  sub74                     23.84       0.00       0.00      17.30       5.48       0.57       6.05        2.42   323.16   0.254
  
  
  ******************
  Node Depth Summary
  ******************
  
  ---------------------------------------------------------------------------------
                                 Average  Maximum  Maximum  Time of Max    Reported
                                   Depth    Depth      HGL   Occurrence   Max Depth
  Node                 Type       Meters   Meters   Meters  days hr:min      Meters
  ---------------------------------------------------------------------------------
  WS02001211           JUNCTION     0.64     0.77     5.61     0  01:47        0.77
  WS02001212           JUNCTION     0.38     0.51     5.57     0  01:46        0.51
  WS02001213           JUNCTION     0.62     0.79     5.55     0  01:46        0.79
  WS02003069           JUNCTION     0.45     0.66     5.24     0  01:46        0.66
  WS02003072           JUNCTION     0.52     0.71     5.08     0  01:46        0.71
  WS02003073           JUNCTION     0.31     0.44     4.51     0  01:47        0.44
  WS02003060           JUNCTION     0.40     0.58     5.51     0  01:45        0.58
  WS02003066           JUNCTION     0.25     0.37     5.92     0  01:41        0.37
  WS02003059           JUNCTION     0.68     0.85     5.54     0  01:46        0.85
  WS02003067           JUNCTION     0.60     0.80     6.12     0  01:40        0.80
  WS02004401           JUNCTION     0.72     1.16     7.16     0  01:37        1.16
  WS02004402           JUNCTION     0.75     1.16     7.12     0  01:37        1.16
  WS02004403           JUNCTION     0.77     1.14     7.07     0  01:37        1.14
  WS02004404           JUNCTION     0.84     1.20     7.05     0  01:38        1.19
  WS02004406           JUNCTION     0.84     1.13     6.96     0  01:38        1.13
  WS02004409           JUNCTION     0.54     0.89     6.66     0  01:40        0.89
  WS02004410           JUNCTION     0.55     0.89     6.61     0  01:41        0.89
  WS02004411           JUNCTION     0.57     0.88     6.56     0  01:40        0.88
  WS02004412           JUNCTION     0.58     0.86     6.50     0  01:41        0.86
  WS02004413           JUNCTION     0.73     0.99     6.46     0  01:41        0.99
  WS02004405           JUNCTION     0.83     1.17     7.02     0  01:37        1.17
  WS02006109           JUNCTION     0.82     1.35     7.97     0  01:37        1.34
  WS02006110           JUNCTION     0.80     1.19     7.77     0  01:38        1.17
  WS02006111           JUNCTION     0.26     0.72     7.43     0  01:37        0.72
  WS02006112           JUNCTION     0.91     1.46     7.34     0  01:37        1.45
  WS02006113           JUNCTION     0.37     0.69     7.59     0  01:38        0.69
  WS02006115           JUNCTION     0.62     1.13     7.27     0  01:37        1.13
  WS02006116           JUNCTION     0.70     1.18     7.22     0  01:37        1.18
  WS02006230           JUNCTION     0.81     1.49     8.24     0  01:38        1.48
  WS02006231           JUNCTION     0.54     1.12     8.24     0  01:38        1.11
  WS02006232           JUNCTION     0.68     1.20     8.24     0  01:38        1.19
  WS02006234           JUNCTION     0.60     1.08     8.24     0  01:38        1.08
  WS02006235           JUNCTION     0.62     1.08     8.24     0  01:37        1.07
  WS02006238           JUNCTION     0.65     1.10     8.24     0  01:38        1.09
  WS02006240           JUNCTION     0.54     0.98     8.27     0  01:35        0.95
  WS02006242           JUNCTION     0.60     1.03     8.30     0  01:35        0.98
  WS02006243           JUNCTION     0.48     0.92     8.34     0  01:35        0.84
  WS02006245           JUNCTION     0.45     0.83     8.32     0  01:35        0.77
  WS02006247           JUNCTION     0.46     0.80     8.30     0  01:35        0.76
  WS02006248           JUNCTION     0.41     0.69     8.28     0  01:35        0.68
  WS02006249           JUNCTION     0.43     0.67     8.27     0  01:40        0.67
  WS02006239           JUNCTION     0.61     1.04     8.25     0  01:35        1.03
  WS02006251           JUNCTION     0.42     0.68     8.35     0  01:40        0.68
  WS02006252           JUNCTION     0.34     0.59     8.83     0  04:45        0.59
  WS02006253           JUNCTION     0.45     0.71     8.36     0  01:40        0.71
  WS02006256           JUNCTION     1.05     1.21     8.14     0  05:42        1.21
  WS02004138           JUNCTION     0.14     0.17     7.42     0  00:00        0.17
  WS02004407           JUNCTION     0.24     0.38     6.69     0  01:39        0.38
  WS02006228           JUNCTION     0.83     1.49     8.14     0  01:38        1.48
  WS02006229           JUNCTION     0.81     1.53     8.23     0  01:38        1.53
  WS02006280           JUNCTION     0.08     0.29     8.56     0  01:36        0.29
  WS02006284           JUNCTION     0.39     0.68     9.08     0  01:36        0.68
  WS02006287           JUNCTION     0.12     0.43     9.38     0  01:35        0.43
  WSF200               JUNCTION     0.24     0.41     5.64     0  01:44        0.41
  HS02004901           JUNCTION     0.14     0.40    10.23     0  01:33        0.40
  HS02004881           JUNCTION     0.01     0.06     9.09     0  01:36        0.06
  HS02004876           JUNCTION     0.05     0.18     9.21     0  01:36        0.18
  HS02004870           JUNCTION     0.02     0.11     9.39     0  01:36        0.11
  HS02004862           JUNCTION     0.03     0.12     9.50     0  01:37        0.12
  HS02004856           JUNCTION     0.09     0.16     9.59     0  01:37        0.16
  HS02004852           JUNCTION     0.02     0.09     9.60     0  01:37        0.09
  HS02004848           JUNCTION     0.02     0.08     9.68     0  01:37        0.08
  HS02004842           JUNCTION     0.34     0.41     9.68     0  01:37        0.41
  HS02004837           JUNCTION     0.03     0.10     9.68     0  01:37        0.10
  HS02004830           JUNCTION     0.05     0.13     9.60     0  01:36        0.13
  HS02004824           JUNCTION     0.03     0.17     9.57     0  01:35        0.17
  HS02004817           JUNCTION     0.46     0.74     9.58     0  01:36        0.74
  HS02004807           JUNCTION     0.15     0.41     9.58     0  01:36        0.40
  HS02004802           JUNCTION     0.18     0.44     9.56     0  01:36        0.44
  HS02004799           JUNCTION     0.14     0.51     9.72     0  01:34        0.51
  HS02004792           JUNCTION     0.05     0.24     9.76     0  01:33        0.24
  HS02004788           JUNCTION     0.04     0.17    10.07     0  01:34        0.17
  HS02004785           JUNCTION     0.06     0.27    10.17     0  01:33        0.27
  HS02004777           JUNCTION     0.16     0.41    10.21     0  01:33        0.41
  HS02004770           JUNCTION     0.14     0.39    10.22     0  01:33        0.39
  HS02004480           JUNCTION     0.10     0.42     9.66     0  01:34        0.42
  HS02004479           JUNCTION     0.14     0.46     9.66     0  01:34        0.46
  HS02004478           JUNCTION     0.08     0.32     9.54     0  01:36        0.32
  YS02001745           JUNCTION     0.82     1.04     8.56     0  03:01        1.04
  YS02001748           JUNCTION     1.23     1.92     9.00     0  01:32        1.46
  YS02001751           JUNCTION     1.41     1.65     8.53     0  01:33        1.64
  YS02001754           JUNCTION     1.67     1.89     8.50     0  03:11        1.89
  YS02001762           JUNCTION     1.87     2.08     8.48     0  03:11        2.07
  YS02001765           JUNCTION     1.82     2.02     8.47     0  03:11        2.02
  YS02001767           JUNCTION     1.78     1.98     8.47     0  03:11        1.97
  YS02001770           JUNCTION     1.77     1.95     8.44     0  02:16        1.95
  YS02001774           JUNCTION     1.84     2.00     8.42     0  02:17        1.99
  YS02001779           JUNCTION     1.58     1.68     8.37     0  01:31        1.68
  YS02001882           JUNCTION     0.75     1.76     8.48     0  01:36        1.63
  YS02001884           JUNCTION     0.84     1.83     8.45     0  01:36        1.73
  YS02001759           JUNCTION     1.90     2.12     8.48     0  03:10        2.11
  YS02001887           JUNCTION     0.92     1.86     8.40     0  01:36        1.81
  YS02001890           JUNCTION     0.95     1.81     8.32     0  01:36        1.81
  YS02001898           JUNCTION     0.71     1.62     8.35     0  01:36        1.56
  YS02001901           JUNCTION     0.83     1.71     8.32     0  01:36        1.67
  YS02001904           JUNCTION     0.81     1.66     8.29     0  01:36        1.63
  YS02001907           JUNCTION     1.14     1.96     8.25     0  01:36        1.96
  YS02001910           JUNCTION     0.93     1.97     8.47     0  01:37        1.79
  YS02001915           JUNCTION     0.73     1.91     8.63     0  01:37        1.62
  YS02001918           JUNCTION     0.47     1.81     8.88     0  01:37        1.31
  YS02001619           JUNCTION     1.36     1.61     8.54     0  01:31        1.50
  YS02001629           JUNCTION     1.72     1.85     8.40     0  01:31        1.85
  YS02001641           JUNCTION     1.81     2.03     8.46     0  01:32        1.93
  YS02001644           JUNCTION     1.82     1.92     8.35     0  01:32        1.92
  YS02001652           JUNCTION     1.68     2.15     8.75     0  01:32        1.88
  YS02001655           JUNCTION     1.44     2.20     9.05     0  01:32        1.67
  YS02001920           JUNCTION     0.57     2.14     9.15     0  01:38        1.40
  YS02001923           JUNCTION     0.39     2.03     9.29     0  01:38        1.18
  YS02001926           JUNCTION     0.41     1.90     9.35     0  01:37        1.47
  YS02001929           JUNCTION     0.26     1.78     9.47     0  01:38        1.64
  YS02001658           JUNCTION     1.16     2.30     9.44     0  01:32        1.42
  YS02001661           JUNCTION     0.92     2.18     9.59     0  01:39        1.18
  YS02001664           JUNCTION     0.42     0.66     8.59     0  01:33        0.65
  YS02001622           JUNCTION     1.38     1.62     8.52     0  01:31        1.51
  YS02001633           JUNCTION     1.81     2.06     8.51     0  01:32        1.94
  YS02001649           JUNCTION     1.87     2.05     8.44     0  01:33        2.05
  YS02001757           JUNCTION     2.00     2.21     8.47     0  02:59        2.21
  YS02001895           JUNCTION     0.71     1.60     8.35     0  01:36        1.56
  YS02001625           JUNCTION     1.67     1.78     8.38     0  01:31        1.78
  YS02163301           JUNCTION     1.75     1.97     8.49     0  01:32        1.88
  YS02163601           JUNCTION     1.86     2.08     8.48     0  01:32        1.98
  YS02164001           JUNCTION     1.80     2.05     8.51     0  01:32        1.91
  YS02001647           JUNCTION     1.65     1.85     8.46     0  01:32        1.79
  YSB1154              JUNCTION     0.28     0.61     9.67     0  01:34        0.61
  YSB6556              JUNCTION     0.17     0.50     9.67     0  01:34        0.50
  YSB1174              JUNCTION     0.23     0.56     9.67     0  01:34        0.56
  YSB1171              JUNCTION     0.43     0.76     9.67     0  01:34        0.76
  YS02006553           JUNCTION     1.14     2.09     8.38     0  01:36        1.97
  YS02006561           JUNCTION     0.46     1.84     8.50     0  01:36        1.09
  YS02006556           JUNCTION     1.11     2.20     8.51     0  01:36        1.93
  YS02006558           JUNCTION     1.15     2.29     8.56     0  01:36        1.98
  YS02001783           JUNCTION     0.72     2.14     8.28     0  01:36        1.48
  YS02001784           JUNCTION     0.73     2.04     8.10     0  01:36        1.42
  YS02001786           JUNCTION     0.65     2.23     8.26     0  01:35        1.27
  YS02001788           JUNCTION     0.57     2.16     8.13     0  01:35        1.13
  YS02001790           JUNCTION     0.70     1.96     7.60     0  01:35        1.29
  YS02001791           JUNCTION     0.67     2.55     8.02     0  05:09        1.27
  YS02001793           JUNCTION     0.94     2.18     7.01     0  01:35        1.80
  WS02004139           JUNCTION     0.58     0.71     5.62     0  01:47        0.71
  WSC                  OUTFALL      0.31     0.44     1.11     0  01:47        0.44
  3                    OUTFALL      0.10     0.20     6.20     0  04:50        0.20
  4                    OUTFALL      0.03     0.17     7.17     0  01:40        0.17
  5                    OUTFALL      0.00     0.00     5.00     0  00:00        0.00
  JK-storage           STORAGE      3.42     5.80     6.60     0  01:35        5.80
  CC-storage           STORAGE      1.23     1.48     8.48     0  03:04        1.48
  XR-storage           STORAGE      7.36     7.72     5.72     0  01:48        7.72
  
  
  *******************
  Node Inflow Summary
  *******************
  
  -------------------------------------------------------------------------------------------------
                                  Maximum  Maximum                  Lateral       Total        Flow
                                  Lateral    Total  Time of Max      Inflow      Inflow     Balance
                                   Inflow   Inflow   Occurrence      Volume      Volume       Error
  Node                 Type           LPS      LPS  days hr:min    10^6 ltr    10^6 ltr     Percent
  -------------------------------------------------------------------------------------------------
  WS02001211           JUNCTION      7.35   295.47     0  03:18       0.207        6.59       0.438
  WS02001212           JUNCTION      0.00   298.69     0  03:17           0        6.56       0.269
  WS02001213           JUNCTION      0.00   301.40     0  03:17           0        6.55       0.291
  WS02003069           JUNCTION      0.32  1156.52     0  01:45     0.00902        16.8       0.150
  WS02003072           JUNCTION      0.00  1156.51     0  01:46           0        16.8       0.186
  WS02003073           JUNCTION      1.82  1158.45     0  01:46      0.0514        16.8       0.196
  WS02003060           JUNCTION     16.53  1156.12     0  01:45       0.466        16.8       0.147
  WS02003066           JUNCTION      0.00   860.67     0  01:41           0        9.89       0.045
  WS02003059           JUNCTION      0.00   305.44     0  03:16           0        6.53       0.496
  WS02003067           JUNCTION      0.00   860.57     0  01:41           0         9.9       0.095
  WS02004401           JUNCTION      0.00   863.90     0  01:38           0        10.1       0.232
  WS02004402           JUNCTION      0.00   863.94     0  01:38           0        10.1       0.217
  WS02004403           JUNCTION      0.00   863.94     0  01:38           0        10.1       0.196
  WS02004404           JUNCTION      0.16   864.35     0  01:39     0.00457        10.1       0.143
  WS02004406           JUNCTION      0.00   864.12     0  01:38           0          10       0.351
  WS02004409           JUNCTION      0.00   864.00     0  01:39           0          10       0.176
  WS02004410           JUNCTION      0.00   861.26     0  01:40           0        9.99       0.195
  WS02004411           JUNCTION      0.00   860.75     0  01:40           0        9.97       0.196
  WS02004412           JUNCTION      0.00   860.54     0  01:40           0        9.95       0.208
  WS02004413           JUNCTION      0.00   860.53     0  01:41           0        9.93       0.311
  WS02004405           JUNCTION      0.04   864.55     0  01:39     0.00107        10.1       0.218
  WS02006109           JUNCTION      1.23   837.68     0  01:36      0.0347        10.1       0.209
  WS02006110           JUNCTION      0.00   837.68     0  01:36           0        10.1       0.224
  WS02006111           JUNCTION      0.00   831.54     0  01:38           0        10.1       0.046
  WS02006112           JUNCTION     34.22   863.81     0  01:38       0.151        10.2       0.282
  WS02006113           JUNCTION      0.00   837.67     0  01:36           0        10.1       0.123
  WS02006115           JUNCTION      0.00   863.85     0  01:38           0        10.2       0.250
  WS02006116           JUNCTION      0.00   863.84     0  01:38           0        10.2       0.188
  WS02006230           JUNCTION     10.28   402.31     0  04:50        0.29        6.11       0.167
  WS02006231           JUNCTION      0.00   392.66     0  05:22           0        5.83       0.317
  WS02006232           JUNCTION      0.00   392.82     0  05:21           0        5.83       0.296
  WS02006234           JUNCTION      0.00   394.16     0  05:21           0        5.82       0.198
  WS02006235           JUNCTION      0.00   394.24     0  05:21           0        5.97       0.176
  WS02006238           JUNCTION      0.00   308.28     0  07:49           0        4.28       0.212
  WS02006240           JUNCTION      0.00   314.46     0  07:41           0        4.28       0.369
  WS02006242           JUNCTION      0.00   325.10     0  07:41           0        4.28       0.434
  WS02006243           JUNCTION      0.00   335.09     0  07:41           0        4.27       0.012
  WS02006245           JUNCTION      0.00   343.00     0  07:41           0        4.28       0.430
  WS02006247           JUNCTION      0.00   349.95     0  03:50           0        4.29       0.248
  WS02006248           JUNCTION      0.00   355.55     0  03:50           0         4.3       0.153
  WS02006249           JUNCTION      0.00   402.05     0  04:49           0        4.77       0.346
  WS02006239           JUNCTION      0.00   309.67     0  07:44           0        4.28       0.351
  WS02006251           JUNCTION      0.08   402.48     0  04:41     0.00217        4.83       0.287
  WS02006252           JUNCTION      0.00   400.00     0  04:40           0        3.96       0.013
  WS02006253           JUNCTION      4.74   178.63     0  01:36      0.0174       0.873       1.006
  WS02006256           JUNCTION      0.00   600.00     0  03:50           0        5.61       0.046
  WS02004138           JUNCTION      0.00   285.00     0  00:50           0        6.41       0.073
  WS02004407           JUNCTION      0.00   864.12     0  01:38           0          10       0.083
  WS02006228           JUNCTION      0.00   836.57     0  01:36           0        10.1       0.155
  WS02006229           JUNCTION      0.00   840.91     0  01:36           0        10.2       0.111
  WS02006280           JUNCTION      0.00   821.15     0  01:36           0        4.12       0.003
  WS02006284           JUNCTION      0.10   821.11     0  01:36      0.0027        4.12       0.020
  WS02006287           JUNCTION      0.00   820.99     0  01:36           0        4.12       0.018
  WSF200               JUNCTION      0.00   860.60     0  01:41           0        9.88       0.046
  HS02004901           JUNCTION     41.69    41.69     0  01:31       0.183       0.183       0.972
  HS02004881           JUNCTION     17.57   174.51     0  01:36      0.0715       0.818       0.041
  HS02004876           JUNCTION     30.53   157.86     0  01:36       0.139       0.748       0.075
  HS02004870           JUNCTION     32.08   127.64     0  01:36       0.135       0.609       0.018
  HS02004862           JUNCTION     28.49    96.84     0  01:37       0.155       0.474       0.038
  HS02004856           JUNCTION     23.95    68.40     0  01:36       0.102        0.32       0.452
  HS02004852           JUNCTION      0.00    45.40     0  01:37           0       0.218       0.027
  HS02004848           JUNCTION     61.76    61.76     0  01:40       0.354       0.354       0.015
  HS02004842           JUNCTION      0.00    18.52     0  01:51           0       0.149       9.566
  HS02004837           JUNCTION     59.75    74.34     0  01:37       0.414        0.55       0.148
  HS02004830           JUNCTION      0.15    74.45     0  01:37     0.00423        0.54       0.229
  HS02004824           JUNCTION     72.88   147.18     0  01:41        0.43       0.969       0.056
  HS02004817           JUNCTION      0.60   149.79     0  01:41      0.0169       0.985       1.720
  HS02004807           JUNCTION     59.71   203.93     0  01:38       0.248        1.22       0.360
  HS02004802           JUNCTION      0.00   204.74     0  01:39           0        1.22       0.326
  HS02004799           JUNCTION     47.08   525.53     0  01:33       0.202         2.5       0.119
  HS02004792           JUNCTION    203.19   478.64     0  01:33       0.982         2.3       0.018
  HS02004788           JUNCTION     66.25   277.12     0  01:34       0.351        1.32       0.029
  HS02004785           JUNCTION      0.15   210.95     0  01:33     0.00423       0.971       0.053
  HS02004777           JUNCTION      0.03   211.17     0  01:32    0.000846       0.971       0.538
  HS02004770           JUNCTION    171.10   212.05     0  01:32       0.792       0.973       0.319
  HS02004480           JUNCTION      0.00   623.58     0  01:34           0        2.92       0.035
  HS02004479           JUNCTION      0.00    98.35     0  01:34           0       0.432       0.170
  HS02004478           JUNCTION      0.00   820.96     0  01:35           0        4.12       0.008
  YS02001745           JUNCTION    635.50   635.50     0  03:01        5.48        5.48       0.206
  YS02001748           JUNCTION      0.04   635.80     0  03:01     0.00127        5.47       0.410
  YS02001751           JUNCTION      0.01   635.98     0  03:01     0.00031        5.45       0.444
  YS02001754           JUNCTION      0.26   636.38     0  03:01     0.00733        5.44       0.448
  YS02001762           JUNCTION      0.00   394.97     0  01:40           0        3.36       0.632
  YS02001765           JUNCTION      0.00   395.25     0  01:41           0        3.35       0.728
  YS02001767           JUNCTION      0.54   395.35     0  01:41      0.0151        3.38       1.064
  YS02001770           JUNCTION    726.70  1079.33     0  03:01           6        7.86       0.398
  YS02001774           JUNCTION      0.00   851.21     0  03:11           0           6       0.417
  YS02001779           JUNCTION      0.01   851.19     0  03:11    0.000141        5.98       0.258
  YS02001882           JUNCTION      0.00    49.59     0  01:34           0      0.0421       5.490
  YS02001884           JUNCTION      0.00    65.18     0  01:32           0      0.0817       8.873
  YS02001759           JUNCTION    688.01   889.71     0  01:47        5.55        7.02       0.325
  YS02001887           JUNCTION    787.85   787.85     0  03:01        6.23        6.27       0.147
  YS02001890           JUNCTION      0.00   787.92     0  03:01           0        6.22       0.153
  YS02001898           JUNCTION      0.00   558.77     0  01:37           0        5.25       0.066
  YS02001901           JUNCTION      0.00   559.96     0  01:37           0        5.24       0.135
  YS02001904           JUNCTION      0.00   560.43     0  01:37           0        5.24       0.117
  YS02001907           JUNCTION      0.00  1384.64     0  03:01           0        13.2       0.187
  YS02001910           JUNCTION      0.00   868.09     0  03:01           0        7.98       0.168
  YS02001915           JUNCTION    536.93   868.03     0  03:01        4.53        8.03       0.075
  YS02001918           JUNCTION      0.00   391.48     0  01:38           0        3.54       0.053
  YS02001619           JUNCTION    541.58   541.58     0  03:01        4.58        4.58       0.264
  YS02001629           JUNCTION      0.00   368.46     0  01:31           0        1.87       1.503
  YS02001641           JUNCTION      0.00   466.30     0  01:32           0        5.95       0.353
  YS02001644           JUNCTION    611.54  1882.06     0  03:01         5.3        18.1       0.145
  YS02001652           JUNCTION      0.00   607.61     0  03:01           0        4.73       0.478
  YS02001655           JUNCTION      0.15   607.55     0  03:01     0.00434        4.76       0.532
  YS02001920           JUNCTION      2.87   391.27     0  01:38      0.0809        3.52       0.094
  YS02001923           JUNCTION      0.04   372.18     0  01:37     0.00106        3.42       0.033
  YS02001926           JUNCTION      0.05   330.49     0  03:01     0.00147        3.39       0.105
  YS02001929           JUNCTION    330.66   371.49     0  01:37        3.37        3.37       0.015
  YS02001658           JUNCTION      0.00   607.32     0  03:01           0        4.78       0.460
  YS02001661           JUNCTION      0.00   801.80     0  01:45           0        5.39       0.086
  YS02001664           JUNCTION    606.27   606.27     0  03:01        4.78        5.39       0.105
  YS02001622           JUNCTION      0.00   541.63     0  03:01           0        4.57       0.696
  YS02001633           JUNCTION    625.57   625.57     0  03:01        5.46        6.65       0.482
  YS02001649           JUNCTION      0.00  1413.73     0  03:01           0        10.5       0.351
  YS02001757           JUNCTION      0.00  2168.73     0  01:46           0        12.7       0.716
  YS02001895           JUNCTION      0.00   557.74     0  01:37           0        5.24       0.113
  YS02001625           JUNCTION      0.00   743.87     0  03:01           0        5.19       0.770
  YS02163301           JUNCTION      0.00   294.35     0  01:30           0        1.87       1.293
  YS02163601           JUNCTION      0.11   465.63     0  01:32      0.0031        5.95       0.504
  YS02164001           JUNCTION      0.00   466.03     0  01:32           0        5.94       0.336
  YS02001647           JUNCTION      0.00   846.70     0  03:10           0        7.94       0.357
  YSB1154              JUNCTION     54.28    54.28     0  01:34       0.243       0.243       0.595
  YSB6556              JUNCTION      0.00    54.37     0  01:35           0       0.244       0.518
  YSB1174              JUNCTION     46.17    46.17     0  01:30       0.181       0.181       0.713
  YSB1171              JUNCTION      0.00    98.47     0  01:34           0       0.431       1.493
  YS02006553           JUNCTION      0.00   699.73     0  03:50           0        7.63       0.209
  YS02006561           JUNCTION      0.00  1034.50     0  01:35           0        13.4       0.006
  YS02006556           JUNCTION      0.00   699.75     0  03:50           0        7.64       0.151
  YS02006558           JUNCTION    724.98  1033.78     0  01:35         5.8        13.4       0.041
  YS02001783           JUNCTION      0.00  1011.46     0  01:35           0        13.4       0.022
  YS02001784           JUNCTION      1.06  1012.60     0  01:35      0.0299        13.4       0.034
  YS02001786           JUNCTION      0.06  1012.97     0  01:35     0.00159        13.4       0.030
  YS02001788           JUNCTION      0.07   974.02     0  03:01       0.002        13.4       0.018
  YS02001790           JUNCTION      0.15   974.18     0  03:01     0.00437        13.4       0.022
  YS02001791           JUNCTION      0.00   974.18     0  03:01           0        13.4       0.009
  YS02001793           JUNCTION      0.00   974.18     0  03:01           0        13.4       0.003
  WS02004139           JUNCTION      0.32   291.91     0  00:00     0.00905        6.42       0.509
  WSC                  OUTFALL       0.00  1158.69     0  01:47           0        16.8       0.000
  3                    OUTFALL       0.00   505.48     0  04:50           0         3.9       0.000
  4                    OUTFALL       0.00   265.50     0  01:40           0       0.459       0.000
  5                    OUTFALL       0.00     0.00     0  00:00           0           0       0.000 ltr
  JK-storage           STORAGE       0.00  1013.44     0  01:34           0        13.5      -3.781
  CC-storage           STORAGE       0.00  2169.36     0  01:46           0        7.85       0.807
  XR-storage           STORAGE    1408.02  1408.02     0  03:01        16.7        17.3      -0.002
  
  
  **********************
  Node Surcharge Summary
  **********************
  
  Surcharging occurs when water rises above the top of the highest conduit.
  ---------------------------------------------------------------------
                                               Max. Height   Min. Depth
                                   Hours       Above Crown    Below Rim
  Node                 Type      Surcharged         Meters       Meters
  ---------------------------------------------------------------------
  WS02004401           JUNCTION        0.83          0.162        1.498
  WS02004402           JUNCTION        0.90          0.159        1.581
  WS02004403           JUNCTION        0.91          0.143        1.887
  WS02004404           JUNCTION        1.18          0.197        2.583
  WS02004406           JUNCTION        1.07          0.130        2.320
  WS02004405           JUNCTION        1.13          0.172        2.628
  WS02006109           JUNCTION        3.20          0.531        1.289
  WS02006110           JUNCTION        1.41          0.276        1.574
  WS02006112           JUNCTION        1.77          0.461        1.219
  WS02006115           JUNCTION        0.38          0.118        2.132
  WS02006116           JUNCTION        0.43          0.119        2.171
  WS02006230           JUNCTION        1.05          0.411        1.159
  WS02006231           JUNCTION        1.05          0.407        1.123
  WS02006232           JUNCTION        3.01          0.500        0.980
  WS02006234           JUNCTION        1.00          0.359        0.881
  WS02006235           JUNCTION        1.90          0.369        0.921
  WS02006238           JUNCTION        2.33          0.379        1.051
  WS02006240           JUNCTION        0.73          0.267        1.123
  WS02006242           JUNCTION        1.56          0.304        0.516
  WS02006243           JUNCTION        0.32          0.207        0.563
  WS02006245           JUNCTION        0.19          0.122        0.728
  WS02006247           JUNCTION        0.17          0.086        0.674
  WS02006239           JUNCTION        1.13          0.299        0.991
  WS02006252           JUNCTION        2.12          0.193        0.907
  WS02006228           JUNCTION        3.06          0.656        1.544
  HS02004817           JUNCTION        0.32          0.036        1.704
  YS02001745           JUNCTION        0.84          0.042        1.308
  YS02001748           JUNCTION        6.29          0.838        0.352
  YS02001751           JUNCTION        6.30          0.652        0.548
  YS02001754           JUNCTION        6.31          0.839        0.311
  YS02001762           JUNCTION        6.34          1.079        0.071
  YS02001765           JUNCTION        6.34          1.021        0.079
  YS02001767           JUNCTION        6.33          0.979        0.051
  YS02001770           JUNCTION        6.33          0.920        0.000
  YS02001774           JUNCTION        6.34          1.002        0.048
  YS02001779           JUNCTION        6.31          0.680        0.000
  YS02001882           JUNCTION        2.57          0.762        0.068
  YS02001884           JUNCTION        2.60          0.775        0.095
  YS02001759           JUNCTION        6.35          1.118        0.092
  YS02001887           JUNCTION        2.67          0.811        0.139
  YS02001890           JUNCTION        2.70          0.760        0.000
  YS02001898           JUNCTION        2.53          0.587        0.153
  YS02001901           JUNCTION        2.64          0.715        0.155
  YS02001904           JUNCTION        2.62          0.656        0.194
  YS02001907           JUNCTION        3.04          0.950        0.000
  YS02001910           JUNCTION        2.74          0.967        0.133
  YS02001915           JUNCTION        2.56          0.914        0.086
  YS02001918           JUNCTION        2.34          0.810        0.000
  YS02001619           JUNCTION        6.31          0.610        0.000
  YS02001629           JUNCTION        6.31          0.470        0.000
  YS02001641           JUNCTION        6.34          1.027        0.073
  YS02001644           JUNCTION        6.34          0.920        0.000
  YS02001652           JUNCTION        6.31          1.119        0.011
  YS02001655           JUNCTION        6.30          1.200        0.000
  YS02001920           JUNCTION        2.37          1.140        0.000
  YS02001923           JUNCTION        0.01          0.820        0.000
  YS02001926           JUNCTION        0.01          0.900        0.000
  YS02001929           JUNCTION        0.01          0.780        0.000
  YS02001658           JUNCTION        6.29          1.300        0.000
  YS02001661           JUNCTION        1.27          1.114        0.276
  YS02001622           JUNCTION        6.31          0.620        0.000
  YS02001633           JUNCTION        6.33          1.038        0.022
  YS02001649           JUNCTION        6.34          1.050        0.000
  YS02001757           JUNCTION        6.36          1.210        0.000
  YS02001895           JUNCTION        2.54          0.600        0.150
  YS02001625           JUNCTION        6.32          0.780        0.000
  YS02163301           JUNCTION        6.33          0.969        0.061
  YS02163601           JUNCTION        6.34          1.080        0.000
  YS02164001           JUNCTION        6.34          1.054        0.046
  YS02001647           JUNCTION        6.32          0.853        0.047
  YS02006553           JUNCTION        3.09          1.094        0.096
  YS02006561           JUNCTION        2.45          1.042        0.108
  YS02006556           JUNCTION        2.90          1.162        0.188
  YS02006558           JUNCTION        2.88          1.193        0.207
  YS02001783           JUNCTION        2.94          1.336        0.264
  YS02001784           JUNCTION        2.98          1.236        0.254
  YS02001786           JUNCTION        2.91          1.430        0.000
  YS02001788           JUNCTION        2.90          1.358        0.122
  YS02001790           JUNCTION        3.42          1.157        0.000
  YS02001791           JUNCTION        3.49          1.754        0.166
  YS02001793           JUNCTION        3.66          1.179        1.421
  
  
  *********************
  Node Flooding Summary
  *********************
  
  Flooding refers to all water that overflows a node, whether it ponds or not.
  --------------------------------------------------------------------------
                                                             Total   Maximum
                                 Maximum   Time of Max       Flood    Ponded
                        Hours       Rate    Occurrence      Volume     Depth
  Node                 Flooded       LPS   days hr:min    10^6 ltr    Meters
  --------------------------------------------------------------------------
  YS02001770              0.90    228.16      0  03:01       0.323     0.000
  YS02001779              4.26    851.18      0  03:11       5.960     0.000
  YS02001890              1.66    271.48      0  03:01       0.963     0.000
  YS02001907              2.20   1137.15      0  03:01       5.551     0.000
  YS02001918              0.01     84.88      0  01:38       0.000     0.000
  YS02001619              0.01     29.19      0  01:32       0.000     0.000
  YS02001629              0.01    323.39      0  01:31       0.004     0.000
  YS02001644              6.08   1882.05      0  03:01      17.005     0.000
  YS02001655              0.01     67.84      0  01:32       0.000     0.000
  YS02001920              0.01     25.69      0  01:38       0.000     0.000
  YS02001923              0.01    141.83      0  01:38       0.000     0.000
  YS02001926              0.01    104.93      0  01:37       0.000     0.000
  YS02001929              0.01    220.48      0  01:38       0.000     0.000
  YS02001658              0.01    232.76      0  01:32       0.000     0.000
  YS02001622              0.01     66.04      0  01:31       0.000     0.000
  YS02001649              1.23    567.02      0  03:01       1.562     0.000
  YS02001757              0.22     95.12      0  03:08       0.045     0.000
  YS02001625              2.89    743.83      0  03:01       3.936     0.000
  YS02163601              0.01      6.88      0  01:32       0.000     0.000
  YS02001786              0.01    128.02      0  01:35       0.000     0.000
  YS02001790              0.01    221.92      0  05:10       0.000     0.000
  JK-storage              3.25    974.18      0  03:01       8.589     0.000
  XR-storage              6.02   1153.14      0  02:50       9.982     0.000
  
  
  **********************
  Storage Volume Summary
  **********************
  
  --------------------------------------------------------------------------------------------------
                         Average     Avg  Evap Exfil       Maximum     Max    Time of Max    Maximum
                          Volume    Pcnt  Pcnt  Pcnt        Volume    Pcnt     Occurrence    Outflow
  Storage Unit           1000 m3    Full  Loss  Loss       1000 m3    Full    days hr:min        LPS
  --------------------------------------------------------------------------------------------------
  JK-storage               0.172      59     0     0         0.291     100       0  01:35     600.00
  CC-storage               3.439      22     0     0         4.131      26       0  03:04     400.00
  XR-storage               0.884      95     0     0         0.926     100       0  01:48     285.00
  
  
  ***********************
  Outfall Loading Summary
  ***********************
  
  -----------------------------------------------------------
                         Flow       Avg       Max       Total
                         Freq      Flow      Flow      Volume
  Outfall Node           Pcnt       LPS       LPS    10^6 ltr
  -----------------------------------------------------------
  WSC                  100.00    619.45   1158.69      16.786
  3                     80.84    250.78    505.48       3.898
  4                     42.85     49.51    265.50       0.459
  5                      0.00      0.00      0.00       0.000
  -----------------------------------------------------------
  System                55.92    919.74   1411.57      21.143
  
  
  ********************
  Link Flow Summary
  ********************
  
  -----------------------------------------------------------------------------
                                 Maximum  Time of Max   Maximum    Max/    Max/
                                  |Flow|   Occurrence   |Veloc|    Full    Full
  Link                 Type          LPS  days hr:min     m/sec    Flow   Depth
  -----------------------------------------------------------------------------
  WS02003066WSF200     CONDUIT    860.60     0  01:41      3.00    0.15    0.30
  WS02006287WS02006284 CONDUIT    821.01     0  01:36      2.53    0.38    0.43
  WS02006284WS02006280 CONDUIT    821.15     0  01:36      2.76    0.34    0.40
  WS02006280WS02006229 CONDUIT    821.03     0  01:36      4.48    0.18    0.32
  WS02006229WS02006228 CONDUIT    836.57     0  01:36      1.66    2.77    1.00
  WS02006256WS02006235 CONDUIT    149.98     0  01:05      2.14    1.59    1.00
  WS02006253WS02006251 CONDUIT    203.61     0  01:35      0.78    0.61    0.98
  WS02006252WS02006251 CONDUIT    400.36     0  07:48      3.19    1.47    1.00
  WS02006251WS02006249 CONDUIT    402.05     0  04:49      1.17    1.16    0.96
  WS02006249WS02006248 CONDUIT    355.55     0  03:50      1.16    1.95    0.95
  WS02006248WS02006247 CONDUIT    349.95     0  03:50      1.13    0.76    0.99
  WS02006247WS02006245 CONDUIT    343.00     0  07:41      1.08    2.72    1.00
  WS02006245WS02006243 CONDUIT    335.09     0  07:41      1.10    0.99    1.00
  WS02006243WS02006242 CONDUIT    325.10     0  07:41      0.95    0.69    1.00
  WS02006242WS02006240 CONDUIT    314.46     0  07:41      0.86    1.25    1.00
  WS02006240WS02006239 CONDUIT    309.67     0  07:44      0.87    0.97    1.00
  WS02006239WS02006238 CONDUIT    308.28     0  07:49      0.85    0.99    1.00
  WS02006238WS02006235 CONDUIT    313.44     0  04:20      0.85    0.70    1.00
  WS02006235WS02006234 CONDUIT    394.16     0  05:21      1.04    4.16    1.00
  WS02006234WS02006232 CONDUIT    392.82     0  05:21      1.02    0.79    1.00
  WS02006232WS02006231 CONDUIT    392.66     0  05:22      1.07    0.82    1.00
  WS02006231WS02006230 CONDUIT    392.03     0  04:50      1.36    5.95    1.00
  WS02006230WS02006229 CONDUIT    402.33     0  04:51      1.05    8.95    1.00
  WS02006228WS02006109 CONDUIT    836.45     0  01:36      1.66    3.65    1.00
  WS02006116WS02004401 CONDUIT    863.90     0  01:38      1.10    1.19    1.00
  WS02006115WS02006116 CONDUIT    863.84     0  01:38      1.10    1.11    1.00
  WS02006113WS02006111 CONDUIT    831.54     0  01:38      2.64    1.00    0.88
  WS02006112WS02006115 CONDUIT    863.85     0  01:38      1.10    0.51    1.00
  WS02006111WS02006112 CONDUIT    833.05     0  01:39      1.77    0.40    0.94
  WS02006110WS02006113 CONDUIT    837.67     0  01:36      1.76    0.76    0.93
  WS02006109WS02006110 CONDUIT    837.68     0  01:36      1.67    1.61    1.00
  WS02004411WS02004412 CONDUIT    860.54     0  01:40      1.19    1.22    0.87
  WS02004401WS02004402 CONDUIT    863.94     0  01:38      1.10    1.04    1.00
  WS02004413WS02003067 CONDUIT    860.57     0  01:41      1.45    0.37    0.71
  WS02004412WS02004413 CONDUIT    860.53     0  01:41      1.13    0.58    0.93
  WS02004410WS02004411 CONDUIT    860.75     0  01:40      1.17    1.18    0.88
  WS02004409WS02004410 CONDUIT    861.26     0  01:40      1.17    1.11    0.89
  WS02004407WS02004409 CONDUIT    864.00     0  01:39      1.72    0.31    0.64
  WS02004406WS02004407 CONDUIT    864.12     0  01:38      1.50    0.39    0.69
  WS02004405WS02004406 CONDUIT    864.12     0  01:38      1.10    1.70    1.00
  WS02004404WS02004405 CONDUIT    864.52     0  01:39      1.10    8.47    1.00
  WS02004403WS02004404 CONDUIT    864.19     0  01:39      1.10    0.62    1.00
  WS02004402WS02004403 CONDUIT    863.94     0  01:38      1.10    1.24    1.00
  WS02004139WS02001211 CONDUIT    288.12     0  03:18      0.81    0.36    0.57
  WS02004138WS02004139 CONDUIT    291.59     0  00:00      3.34    0.06    0.41
  WS02003067WS02003066 CONDUIT    860.67     0  01:41      1.57    0.28    0.49
  WS02001213WS02003059 CONDUIT    305.44     0  03:16      0.78    0.50    0.81
  WS02001212WS02001213 CONDUIT    301.40     0  03:17      1.19    0.46    0.49
  WS02001211WS02001212 CONDUIT    298.69     0  03:17      0.67    0.23    0.64
  WS02003072WS02003073 CONDUIT   1156.63     0  01:46      1.86    2.50    0.54
  WS02003069WS02003072 CONDUIT   1156.51     0  01:46      1.74    0.56    0.57
  WS02003060WS02003069 CONDUIT   1156.20     0  01:45      1.96    0.45    0.52
  WS02003059WS02003060 CONDUIT    310.79     0  03:16      0.82    0.20    0.71
  HS02004901HS02004770 CONDUIT     40.98     0  01:33      0.10    0.15    0.57
  HS02004876HS02004881 CONDUIT    157.88     0  01:36      1.33    1.68    0.17
  HS02004870HS02004876 CONDUIT    127.62     0  01:36      0.90    0.08    0.20
  HS02004842HS02004848 CONDUIT     18.52     0  01:51      0.08    0.01    0.35
  HS02004837HS02004842 CONDUIT     18.98     0  01:52      0.42    0.01    0.36
  HS02004830HS02004837 CONDUIT     74.30     0  01:37      0.68    0.07    0.16
  HS02004824HS02004830 CONDUIT     75.01     0  01:38      0.62    0.10    0.21
  HS02004817HS02004824 CONDUIT    149.19     0  01:41      0.35    0.07    0.62
  HS02004770HS02004777 CONDUIT    211.14     0  01:32      0.52    0.39    0.58
  HS02004799HS02004480 CONDUIT    525.38     0  01:34      1.14    0.66    0.66
  HS02004792HS02004799 CONDUIT    478.55     0  01:33      1.27    0.29    0.54
  HS02004788HS02004792 CONDUIT    277.01     0  01:34      1.34    0.18    0.30
  HS02004785HS02004788 CONDUIT    210.89     0  01:34      0.96    1.59    0.31
  HS02004777HS02004785 CONDUIT    210.80     0  01:33      0.62    0.26    0.49
  HS02004480HS02004478 CONDUIT    623.56     0  01:34      1.66    2.63    0.54
  HS02004479HS02004480 CONDUIT     98.64     0  01:35      0.34    0.10    0.63
  HS02004862HS02004870 CONDUIT     96.84     0  01:37      0.86    0.10    0.16
  HS02004848HS02004852 CONDUIT     45.40     0  01:37      0.56    0.05    0.12
  HS02004856HS02004862 CONDUIT     68.36     0  01:37      0.64    0.07    0.15
  HS02004852HS02004856 CONDUIT     45.49     0  01:38      0.37    0.05    0.18
  HS02004802HS02004478 CONDUIT    205.91     0  01:39      0.56    0.18    0.54
  HS02004478WS02006287 CONDUIT    820.99     0  01:36      2.26    0.23    0.40
  HS02004817HS02004807 CONDUIT    149.99     0  01:41      0.27    0.09    0.79
  HS02004807HS02004802 CONDUIT    204.74     0  01:39      0.50    0.39    0.59
  YS02001759YS02001757 CONDUIT    889.55     0  01:47      1.13    0.63    1.00
  YS02001762YS02001759 CONDUIT    395.03     0  01:41      0.50    0.46    1.00
  YS02001765YS02001762 CONDUIT    394.97     0  01:40      0.50    0.37    1.00
  YS02001770YS02001767 CONDUIT    394.82     0  01:41      0.50    1.56    1.00
  YS02001774YS02001770 CONDUIT    851.21     0  03:11      1.08    0.54    1.00
  YS02001779YS02001774 CONDUIT    851.19     0  03:11      1.08    0.43    1.00
  YS02001649YS02001757 CONDUIT    912.06     0  01:44      1.16    0.55    1.00
  YS02001767YS02001765 CONDUIT    395.25     0  01:41      0.50    0.50    1.00
  YS02006561YS02001783 CONDUIT   1011.46     0  01:35      2.26    0.52    1.00
  YS02001783YS02001784 CONDUIT   1011.54     0  01:35      2.01    1.39    1.00
  YS02001784YS02001785 CONDUIT   1012.92     0  01:35      2.06    2.36    1.00
  YS02001788YS02001790 CONDUIT    974.02     0  03:01      2.47    0.72    1.00
  YS02001790YS02001791 CONDUIT    974.18     0  03:01      2.99    1.06    1.00
  YS02001791YS02001793 CONDUIT    974.18     0  03:01      5.87    0.42    1.00
  YS02001910YS02001907 CONDUIT    868.25     0  03:01      1.11    0.49    1.00
  YS02001786YS02001788 CONDUIT    973.95     0  03:01      2.33    1.88    1.00
  YS02001915YS02001910 CONDUIT    868.09     0  03:01      1.11    0.43    1.00
  YS02001918YS02001915 CONDUIT    391.85     0  01:38      0.56    0.22    1.00
  YS02001923YS02001920 CONDUIT    388.40     0  01:38      0.88    0.17    1.00
  YS02001926YS02001923 CONDUIT    333.42     0  03:01      0.95    0.48    1.00
  YS02001929YS02001926 CONDUIT    330.43     0  03:01      1.03    0.16    1.00
  YS02001920YS02001918 CONDUIT    391.48     0  01:38      0.84    0.38    1.00
  YS02001629YS02163301 CONDUIT    292.95     0  01:30      0.37    0.36    1.00
  YS02001619YS02001622 CONDUIT    541.63     0  03:01      0.90    0.80    1.00
  YS02001622YS02001625 CONDUIT    541.79     0  03:01      0.69    0.29    1.00
  YS02001625YS02001629 CONDUIT    309.37     0  01:30      0.45    0.15    1.00
  YS02163301YS02001633 CONDUIT    294.35     0  01:30      0.37    0.28    1.00
  YS02163601YS02164001 CONDUIT    466.03     0  01:32      0.59    0.41    1.00
  YS02164001YS02001641 CONDUIT    466.30     0  01:32      0.59    0.64    1.00
  YS02001641YS02001644 CONDUIT    467.62     0  01:32      0.60    1.51    1.00
  YS02001647YS02001649 CONDUIT    846.70     0  03:10      1.08    0.45    1.00
  YS02006553YS02006556 CONDUIT    699.75     0  03:50      0.89    0.60    1.00
  YS02006556YS02006558 CONDUIT    699.82     0  03:50      0.89    0.55    1.00
  YSB6556YSB1171       CONDUIT     54.78     0  01:36      0.16    0.06    0.86
  YS02001907YS02006553 CONDUIT    699.73     0  03:50      0.78    0.82    1.00
  YS02006558YS02006561 CONDUIT   1034.50     0  01:35      3.74    2.29    1.00
  YS02001633YS02163601 CONDUIT    465.52     0  01:32      0.59    0.49    1.00
  YS02001644YS02001647 CONDUIT    846.70     0  03:10      1.08    0.50    1.00
  YS02001745YS02001748 CONDUIT    635.76     0  03:01      1.90    0.24    1.00
  YS02001748YS02001751 CONDUIT    635.97     0  03:01      1.44    0.32    1.00
  YS02001751YS02001754 CONDUIT    636.12     0  03:01      1.17    0.31    1.00
  YS02001754YS02001757 CONDUIT    636.45     0  03:01      0.81    0.26    1.00
  YS02001882YS02001884 CONDUIT     49.59     0  01:34      0.18    0.06    1.00
  YS02001884YS02001887 CONDUIT     65.18     0  01:32      0.14    0.09    1.00
  YS02001890YS02001895 CONDUIT    557.74     0  01:37      0.71    0.26    1.00
  YS02001895YS02001898 CONDUIT    558.77     0  01:37      0.71    0.97    1.00
  YS02001898YS02001901 CONDUIT    559.96     0  01:37      0.71    0.36    1.00
  YS02001901YS02001904 CONDUIT    560.43     0  01:37      0.71    0.87    1.00
  YS02001904YS02001907 CONDUIT    560.69     0  01:37      0.71    0.20    1.00
  YS02001887YS02001890 CONDUIT    787.92     0  03:01      1.00    1.35    1.00
  YS02001652YS02001649 CONDUIT    607.63     0  03:01      0.77    0.30    1.00
  YS02001655YS02001652 CONDUIT    607.61     0  03:01      1.26    0.30    1.00
  YS02001658YS02001655 CONDUIT    607.40     0  03:01      1.67    0.26    1.00
  YS02001661YS02001658 CONDUIT    607.32     0  03:01      2.02    0.24    1.00
  YS02001664YS02001661 CONDUIT    801.80     0  01:45      1.90    0.25    0.83
  YSB1154YSB6556       CONDUIT     54.37     0  01:35      0.17    0.10    0.79
  YSB1174YSB1171       CONDUIT     45.37     0  01:31      0.13    0.07    0.90
  YSB1171HS02004479    CONDUIT     98.35     0  01:34      0.54    0.07    0.73
  HS02004881HS02006253 CONDUIT    174.51     0  01:36      2.76    0.03    0.31
  YS02001793JiankangQianchi CONDUIT   1013.44     0  01:34     13.04    0.08    1.00
  YS02001757CaochengTiaoxuchi CONDUIT   2169.36     0  01:46      3.81    0.95    1.00
  WSF200WS02003060     CONDUIT    859.68     0  01:41      2.02    0.19    0.41
  1                    CONDUIT   1158.69     0  01:47      3.46    0.40    0.44
  2                    CONDUIT    265.50     0  01:40      6.25    0.64    0.58
  3                    CONDUIT    505.48     0  04:50      9.81    0.81    0.68
  4                    CONDUIT      0.00     0  00:00      0.00    0.00    0.00
  CC-Pump-1            PUMP       200.00     0  04:30              1.00
  CC-Pump-2            PUMP       200.00     0  03:50              1.00
  JK-Pump-1            PUMP       300.00     0  03:50              1.00
  JK-Pump-2            PUMP       300.00     0  03:50              1.00
  XR-Pump-1            PUMP        95.00     0  00:00              1.00
  XR-Pump-2            PUMP        95.00     0  00:00              1.00
  XR-Pump-3            PUMP        95.00     0  00:00              1.00
  XR-Pump-4            PUMP        95.00     0  04:10              1.00
  
  
  ***************************
  Flow Classification Summary
  ***************************
  
  -------------------------------------------------------------------------------------
                      Adjusted    ---------- Fraction of Time in Flow Class ---------- 
                       /Actual         Up    Down  Sub   Sup   Up    Down  Norm  Inlet 
  Conduit               Length    Dry  Dry   Dry   Crit  Crit  Crit  Crit  Ltd   Ctrl  
  -------------------------------------------------------------------------------------
  WS02003066WSF200        1.00   0.06  0.00  0.00  0.00  0.94  0.00  0.00  0.57  0.00
  WS02006287WS02006284    1.00   0.02  0.02  0.00  0.64  0.32  0.00  0.00  0.61  0.00
  WS02006284WS02006280    1.00   0.03  0.00  0.00  0.00  0.00  0.00  0.97  0.00  0.00
  WS02006280WS02006229    1.00   0.03  0.00  0.00  0.00  0.03  0.00  0.95  0.00  0.00
  WS02006229WS02006228    1.00   0.00  0.00  0.00  1.00  0.00  0.00  0.00  0.00  0.00
  WS02006256WS02006235    1.00   0.02  0.00  0.00  0.98  0.00  0.00  0.00  0.00  0.00
  WS02006253WS02006251    1.00   0.01  0.01  0.00  0.97  0.00  0.01  0.00  0.00  0.00
  WS02006252WS02006251    1.00   0.06  0.00  0.00  0.00  0.00  0.94  0.00  0.00  0.00
  WS02006251WS02006249    1.00   0.00  0.00  0.00  1.00  0.00  0.00  0.00  0.20  0.00
  WS02006249WS02006248    1.00   0.00  0.00  0.00  0.90  0.00  0.10  0.00  0.00  0.00
  WS02006248WS02006247    1.00   0.00  0.00  0.00  0.99  0.00  0.00  0.01  0.08  0.00
  WS02006247WS02006245    1.00   0.00  0.00  0.00  0.98  0.00  0.00  0.02  0.00  0.00
  WS02006245WS02006243    1.00   0.01  0.00  0.00  0.96  0.00  0.00  0.03  0.02  0.00
  WS02006243WS02006242    1.00   0.01  0.00  0.00  0.98  0.00  0.00  0.02  0.03  0.00
  WS02006242WS02006240    1.00   0.01  0.01  0.00  0.98  0.00  0.00  0.00  0.00  0.00
  WS02006240WS02006239    1.00   0.02  0.00  0.00  0.98  0.00  0.00  0.00  0.00  0.00
  WS02006239WS02006238    1.00   0.02  0.00  0.00  0.98  0.00  0.00  0.00  0.00  0.00
  WS02006238WS02006235    1.00   0.02  0.00  0.00  0.98  0.00  0.00  0.00  0.00  0.00
  WS02006235WS02006234    1.00   0.02  0.00  0.00  0.98  0.00  0.00  0.00  0.00  0.00
  WS02006234WS02006232    1.00   0.02  0.00  0.00  0.98  0.00  0.00  0.00  0.00  0.00
  WS02006232WS02006231    1.00   0.02  0.00  0.00  0.98  0.00  0.00  0.00  0.00  0.00
  WS02006231WS02006230    1.00   0.02  0.00  0.00  0.72  0.00  0.26  0.00  0.00  0.00
  WS02006230WS02006229    1.00   0.00  0.00  0.00  0.99  0.00  0.00  0.01  0.00  0.00
  WS02006228WS02006109    1.00   0.00  0.00  0.00  1.00  0.00  0.00  0.00  0.00  0.00
  WS02006116WS02004401    1.00   0.02  0.00  0.00  0.98  0.00  0.00  0.00  0.00  0.00
  WS02006115WS02006116    1.00   0.02  0.00  0.00  0.96  0.00  0.00  0.02  0.00  0.00
  WS02006113WS02006111    1.00   0.01  0.00  0.00  0.06  0.93  0.00  0.00  0.12  0.00
  WS02006112WS02006115    1.00   0.01  0.01  0.00  0.98  0.00  0.00  0.00  0.00  0.00
  WS02006111WS02006112    1.00   0.01  0.00  0.00  0.99  0.00  0.00  0.00  0.78  0.00
  WS02006110WS02006113    1.00   0.00  0.01  0.00  0.99  0.00  0.00  0.00  0.00  0.00
  WS02006109WS02006110    1.00   0.00  0.00  0.00  1.00  0.00  0.00  0.00  0.00  0.00
  WS02004411WS02004412    1.00   0.05  0.00  0.00  0.95  0.00  0.00  0.00  0.00  0.00
  WS02004401WS02004402    1.00   0.02  0.00  0.00  0.98  0.00  0.00  0.00  0.02  0.00
  WS02004413WS02003067    1.00   0.05  0.00  0.00  0.00  0.00  0.94  0.00  0.00  0.00
  WS02004412WS02004413    1.00   0.05  0.00  0.00  0.95  0.00  0.00  0.00  0.00  0.00
  WS02004410WS02004411    1.00   0.05  0.00  0.00  0.95  0.00  0.00  0.00  0.00  0.00
  WS02004409WS02004410    1.00   0.05  0.00  0.00  0.95  0.00  0.00  0.00  0.00  0.00
  WS02004407WS02004409    1.00   0.05  0.00  0.00  0.95  0.01  0.00  0.00  0.82  0.00
  WS02004406WS02004407    1.00   0.00  0.05  0.00  0.95  0.00  0.00  0.00  0.00  0.00
  WS02004405WS02004406    1.00   0.00  0.00  0.00  1.00  0.00  0.00  0.00  0.04  0.00
  WS02004404WS02004405    1.00   0.00  0.00  0.00  1.00  0.00  0.00  0.00  0.00  0.00
  WS02004403WS02004404    1.00   0.00  0.02  0.00  0.98  0.00  0.00  0.00  0.04  0.00
  WS02004402WS02004403    1.00   0.02  0.00  0.00  0.98  0.00  0.00  0.00  0.00  0.00
  WS02004139WS02001211    1.00   0.00  0.00  0.00  1.00  0.00  0.00  0.00  0.00  0.00
  WS02004138WS02004139    1.00   0.00  0.00  0.00  1.00  0.00  0.00  0.00  1.00  0.00
  WS02003067WS02003066    1.00   0.06  0.00  0.00  0.94  0.00  0.00  0.00  0.00  0.00
  WS02001213WS02003059    1.00   0.00  0.00  0.00  1.00  0.00  0.00  0.00  0.00  0.00
  WS02001212WS02001213    1.00   0.00  0.00  0.00  0.87  0.00  0.13  0.00  0.00  0.00
  WS02001211WS02001212    1.00   0.00  0.00  0.00  1.00  0.00  0.00  0.00  0.00  0.00
  WS02003072WS02003073    1.00   0.00  0.00  0.00  0.00  0.00  0.00  1.00  0.00  0.00
  WS02003069WS02003072    1.00   0.00  0.00  0.00  1.00  0.00  0.00  0.00  0.19  0.00
  WS02003060WS02003069    1.00   0.00  0.00  0.00  1.00  0.00  0.00  0.00  0.04  0.00
  WS02003059WS02003060    1.00   0.00  0.00  0.00  1.00  0.00  0.00  0.00  0.01  0.00
  HS02004901HS02004770    1.00   0.02  0.00  0.00  0.98  0.00  0.00  0.00  0.00  0.00
  HS02004876HS02004881    1.00   0.00  0.00  0.00  0.81  0.19  0.00  0.00  0.00  0.00
  HS02004870HS02004876    1.00   0.00  0.00  0.00  1.00  0.00  0.00  0.00  0.95  0.00
  HS02004842HS02004848    1.00   0.00  0.02  0.00  0.98  0.00  0.00  0.00  0.54  0.00
  HS02004837HS02004842    1.00   0.00  0.00  0.00  1.00  0.00  0.00  0.00  0.11  0.00
  HS02004830HS02004837    1.00   0.00  0.00  0.00  1.00  0.00  0.00  0.00  0.99  0.00
  HS02004824HS02004830    1.00   0.00  0.00  0.00  1.00  0.00  0.00  0.00  0.03  0.00
  HS02004817HS02004824    1.00   0.00  0.00  0.00  1.00  0.00  0.00  0.00  0.88  0.00
  HS02004770HS02004777    1.00   0.00  0.02  0.00  0.98  0.00  0.00  0.00  0.02  0.00
  HS02004799HS02004480    1.00   0.00  0.01  0.00  0.96  0.00  0.03  0.00  0.00  0.00
  HS02004792HS02004799    1.00   0.00  0.00  0.00  1.00  0.00  0.00  0.00  0.98  0.00
  HS02004788HS02004792    1.00   0.00  0.00  0.00  1.00  0.00  0.00  0.00  0.98  0.00
  HS02004785HS02004788    1.00   0.00  0.00  0.00  1.00  0.00  0.00  0.00  0.00  0.00
  HS02004777HS02004785    1.00   0.00  0.00  0.00  1.00  0.00  0.00  0.00  0.11  0.00
  HS02004480HS02004478    1.00   0.02  0.00  0.00  0.72  0.00  0.00  0.26  0.00  0.00
  HS02004479HS02004480    1.00   0.01  0.00  0.00  0.99  0.00  0.00  0.00  0.11  0.00
  HS02004862HS02004870    1.00   0.00  0.00  0.00  1.00  0.00  0.00  0.00  0.02  0.00
  HS02004848HS02004852    1.00   0.02  0.00  0.00  0.98  0.00  0.00  0.00  0.82  0.00
  HS02004856HS02004862    1.00   0.00  0.04  0.00  0.96  0.00  0.00  0.00  0.84  0.00
  HS02004852HS02004856    1.00   0.02  0.00  0.00  0.98  0.00  0.00  0.00  0.70  0.00
  HS02004802HS02004478    1.00   0.02  0.00  0.00  0.98  0.00  0.00  0.00  0.02  0.00
  HS02004478WS02006287    1.00   0.04  0.00  0.00  0.75  0.21  0.00  0.00  0.58  0.00
  HS02004817HS02004807    1.00   0.00  0.02  0.00  0.98  0.00  0.00  0.00  0.01  0.00
  HS02004807HS02004802    1.00   0.02  0.00  0.00  0.97  0.00  0.00  0.01  0.00  0.00
  YS02001759YS02001757    1.00   0.00  0.00  0.00  1.00  0.00  0.00  0.00  0.15  0.00
  YS02001762YS02001759    1.00   0.00  0.00  0.00  1.00  0.00  0.00  0.00  0.02  0.00
  YS02001765YS02001762    1.00   0.00  0.00  0.00  1.00  0.00  0.00  0.00  0.13  0.00
  YS02001770YS02001767    1.00   0.00  0.00  0.00  1.00  0.00  0.00  0.00  0.00  0.00
  YS02001774YS02001770    1.00   0.00  0.02  0.00  0.98  0.00  0.00  0.00  0.02  0.00
  YS02001779YS02001774    1.00   0.00  0.00  0.00  1.00  0.00  0.00  0.00  0.16  0.00
  YS02001649YS02001757    1.00   0.00  0.00  0.00  1.00  0.00  0.00  0.00  0.15  0.00
  YS02001767YS02001765    1.00   0.00  0.00  0.00  1.00  0.00  0.00  0.00  0.00  0.00
  YS02006561YS02001783    1.00   0.05  0.00  0.00  0.46  0.49  0.00  0.00  0.38  0.00
  YS02001783YS02001784    1.00   0.00  0.05  0.00  0.95  0.00  0.00  0.00  0.00  0.00
  YS02001784YS02001785    1.00   0.00  0.00  0.00  1.00  0.00  0.00  0.00  0.16  0.00
  YS02001788YS02001790    1.00   0.00  0.00  0.00  0.53  0.47  0.00  0.00  0.34  0.00
  YS02001790YS02001791    1.00   0.00  0.00  0.00  0.50  0.50  0.00  0.00  0.35  0.00
  YS02001791YS02001793    1.00   0.00  0.00  0.00  0.53  0.47  0.00  0.00  0.03  0.00
  YS02001910YS02001907    1.00   0.00  0.00  0.00  0.99  0.00  0.00  0.00  0.12  0.00
  YS02001786YS02001788    1.00   0.00  0.00  0.00  0.52  0.48  0.00  0.00  0.00  0.00
  YS02001915YS02001910    1.00   0.00  0.00  0.00  0.98  0.02  0.00  0.00  0.13  0.00
  YS02001918YS02001915    1.00   0.00  0.00  0.00  1.00  0.00  0.00  0.00  0.44  0.00
  YS02001923YS02001920    1.00   0.00  0.00  0.00  1.00  0.00  0.00  0.00  0.64  0.00
  YS02001926YS02001923    1.00   0.00  0.01  0.00  0.30  0.00  0.69  0.00  0.00  0.00
  YS02001929YS02001926    1.00   0.00  0.02  0.00  0.98  0.00  0.00  0.00  0.56  0.00
  YS02001920YS02001918    1.00   0.00  0.00  0.00  1.00  0.00  0.00  0.00  0.00  0.00
  YS02001629YS02163301    1.00   0.03  0.01  0.00  0.96  0.00  0.00  0.00  0.00  0.00
  YS02001619YS02001622    1.00   0.02  0.00  0.00  0.98  0.00  0.00  0.00  0.00  0.00
  YS02001622YS02001625    1.00   0.02  0.00  0.00  0.97  0.00  0.00  0.00  0.03  0.00
  YS02001625YS02001629    1.00   0.02  0.02  0.00  0.95  0.00  0.01  0.00  0.00  0.00
  YS02163301YS02001633    1.00   0.00  0.03  0.00  0.97  0.00  0.00  0.00  0.00  0.00
  YS02163601YS02164001    1.00   0.00  0.01  0.00  0.99  0.00  0.00  0.00  0.00  0.00
  YS02164001YS02001641    1.00   0.00  0.01  0.00  0.99  0.00  0.00  0.00  0.06  0.00
  YS02001641YS02001644    1.00   0.00  0.00  0.00  1.00  0.00  0.00  0.00  0.00  0.00
  YS02001647YS02001649    1.00   0.00  0.04  0.00  0.96  0.00  0.00  0.00  0.01  0.00
  YS02006553YS02006556    1.00   0.00  0.00  0.00  1.00  0.00  0.00  0.00  0.03  0.00
  YS02006556YS02006558    1.00   0.00  0.00  0.00  1.00  0.00  0.00  0.00  0.00  0.00
  YSB6556YSB1171          1.00   0.01  0.01  0.00  0.98  0.00  0.00  0.00  0.00  0.00
  YS02001907YS02006553    1.00   0.00  0.00  0.00  1.00  0.00  0.00  0.00  0.00  0.00
  YS02006558YS02006561    1.00   0.05  0.00  0.00  0.34  0.62  0.00  0.00  0.34  0.00
  YS02001633YS02163601    1.00   0.00  0.00  0.00  1.00  0.00  0.00  0.00  0.15  0.00
  YS02001644YS02001647    1.00   0.00  0.04  0.00  0.96  0.00  0.00  0.00  0.00  0.00
  YS02001745YS02001748    1.00   0.00  0.00  0.00  0.94  0.00  0.00  0.06  0.00  0.00
  YS02001748YS02001751    1.00   0.00  0.00  0.00  0.97  0.03  0.00  0.00  0.13  0.00
  YS02001751YS02001754    1.00   0.00  0.00  0.00  0.95  0.00  0.00  0.05  0.01  0.00
  YS02001754YS02001757    1.00   0.00  0.00  0.00  1.00  0.00  0.00  0.00  0.16  0.00
  YS02001882YS02001884    1.00   0.03  0.01  0.00  0.96  0.00  0.00  0.00  0.00  0.00
  YS02001884YS02001887    1.00   0.01  0.01  0.00  0.98  0.00  0.00  0.00  0.00  0.00
  YS02001890YS02001895    1.00   0.00  0.04  0.00  0.96  0.00  0.00  0.00  0.00  0.00
  YS02001895YS02001898    1.00   0.04  0.00  0.00  0.95  0.00  0.01  0.00  0.00  0.00
  YS02001898YS02001901    1.00   0.04  0.00  0.00  0.96  0.00  0.00  0.00  0.00  0.00
  YS02001901YS02001904    1.00   0.04  0.00  0.00  0.96  0.00  0.00  0.00  0.00  0.00
  YS02001904YS02001907    1.00   0.00  0.04  0.00  0.96  0.00  0.00  0.00  0.00  0.00
  YS02001887YS02001890    1.00   0.00  0.00  0.00  0.99  0.00  0.00  0.00  0.00  0.00
  YS02001652YS02001649    1.00   0.00  0.00  0.00  0.99  0.01  0.00  0.00  0.15  0.00
  YS02001655YS02001652    1.00   0.00  0.00  0.00  0.95  0.00  0.00  0.05  0.01  0.00
  YS02001658YS02001655    1.00   0.00  0.03  0.00  0.95  0.03  0.00  0.00  0.01  0.00
  YS02001661YS02001658    1.00   0.03  0.00  0.00  0.94  0.03  0.00  0.00  0.00  0.00
  YS02001664YS02001661    1.00   0.02  0.00  0.00  0.96  0.02  0.00  0.00  0.07  0.00
  YSB1154YSB6556          1.00   0.02  0.00  0.00  0.98  0.00  0.00  0.00  0.01  0.00
  YSB1174YSB1171          1.00   0.01  0.01  0.00  0.98  0.00  0.00  0.00  0.00  0.00
  YSB1171HS02004479       1.00   0.01  0.00  0.00  0.99  0.00  0.00  0.00  0.10  0.00
  HS02004881HS02006253    1.00   0.01  0.00  0.00  0.71  0.07  0.00  0.21  0.59  0.00
  YS02001793JiankangQianchi    1.00   0.00  0.00  0.00  0.74  0.26  0.00  0.00  0.33  0.00
  YS02001757CaochengTiaoxuchi    1.00   0.00  0.05  0.00  0.91  0.04  0.00  0.00  0.00  0.00
  WSF200WS02003060        1.00   0.00  0.06  0.00  0.53  0.41  0.00  0.00  0.07  0.00
  1                       1.00   0.00  0.00  0.00  0.00  1.00  0.00  0.00  0.45  0.00
  2                       1.00   0.57  0.00  0.00  0.00  0.43  0.00  0.00  0.12  0.00
  3                       1.00   0.19  0.00  0.00  0.00  0.81  0.00  0.00  0.08  0.00
  4                       1.00   1.00  0.00  0.00  0.00  0.00  0.00  0.00  0.00  0.00
  
  
  *************************
  Conduit Surcharge Summary
  *************************
  
  ----------------------------------------------------------------------------
                                                           Hours        Hours 
                         --------- Hours Full --------   Above Full   Capacity
  Conduit                Both Ends  Upstream  Dnstream   Normal Flow   Limited
  ----------------------------------------------------------------------------
  WS02006229WS02006228        3.06      3.32      3.06      5.19         3.06
  WS02006256WS02006235        6.60      6.60      6.82      3.07         0.01
  WS02006253WS02006251        0.01      0.01      0.03      0.01         0.01
  WS02006252WS02006251        0.97      0.97      2.12      1.82         0.01
  WS02006251WS02006249        0.01      0.01      0.01      0.97         0.01
  WS02006249WS02006248        0.01      0.01      0.01      3.56         0.01
  WS02006248WS02006247        0.01      0.01      0.17      0.01         0.01
  WS02006247WS02006245        0.19      0.19      0.19      4.28         0.07
  WS02006245WS02006243        0.21      0.21      0.32      0.01         0.01
  WS02006243WS02006242        0.37      0.37      1.56      0.01         0.01
  WS02006242WS02006240        0.73      0.73      2.15      2.10         0.01
  WS02006240WS02006239        0.90      0.90      1.13      0.01         0.01
  WS02006239WS02006238        2.11      2.11      2.32      0.01         0.01
  WS02006238WS02006235        2.16      2.16      2.77      0.01         0.01
  WS02006235WS02006234        1.00      1.00      1.90      5.89         0.13
  WS02006234WS02006232        1.20      1.20      3.01      0.01         0.01
  WS02006232WS02006231        1.05      1.05      3.01      0.01         0.01
  WS02006231WS02006230        1.05      1.05      1.08      6.37         0.13
  WS02006230WS02006229        4.22      4.95      4.22      6.52         4.01
  WS02006228WS02006109        3.19      3.79      3.19      6.06         3.19
  WS02006116WS02004401        0.82      0.82      0.83      0.68         0.68
  WS02006115WS02006116        0.42      0.42      0.43      0.32         0.31
  WS02006112WS02006115        0.38      0.38      1.77      0.01         0.01
  WS02006111WS02006112        0.01      0.01      5.45      0.01         0.01
  WS02006110WS02006113        0.01      0.01      3.55      0.01         0.01
  WS02006109WS02006110        1.41      1.41      3.78      1.42         0.01
  WS02004411WS02004412        0.01      0.01      0.01      0.77         0.01
  WS02004401WS02004402        0.83      0.83      0.90      0.17         0.18
  WS02004410WS02004411        0.01      0.01      0.01      0.61         0.01
  WS02004409WS02004410        0.01      0.01      0.01      0.34         0.01
  WS02004406WS02004407        0.01      0.01      1.07      0.01         0.01
  WS02004405WS02004406        1.07      1.12      1.07      1.75         1.07
  WS02004404WS02004405        1.12      1.18      1.12      6.45         1.12
  WS02004403WS02004404        0.91      0.91      1.18      0.01         0.01
  WS02004402WS02004403        0.90      0.90      0.91      0.81         0.80
  WS02003072WS02003073        0.01      0.01      0.01      5.64         0.01
  HS02004876HS02004881        0.01      0.01      0.01      0.86         0.01
  HS02004817HS02004824        0.01      0.01      0.32      0.01         0.01
  HS02004785HS02004788        0.01      0.01      0.01      0.81         0.01
  HS02004480HS02004478        0.01      0.01      0.01      1.81         0.01
  HS02004817HS02004807        0.01      0.01      0.32      0.01         0.01
  YS02001759YS02001757        6.35      6.35      6.36      0.01         0.01
  YS02001762YS02001759        6.34      6.34      6.35      0.01         0.01
  YS02001765YS02001762        6.34      6.34      6.34      0.01         0.01
  YS02001770YS02001767        6.33      6.33      6.33      1.78         0.56
  YS02001774YS02001770        6.33      6.33      6.34      0.01         0.01
  YS02001779YS02001774        6.31      6.31      6.34      0.01         0.01
  YS02001649YS02001757        6.34      6.34      6.36      0.01         0.01
  YS02001767YS02001765        6.33      6.33      6.34      0.01         0.01
  YS02006561YS02001783        2.45      2.45      2.94      0.01         0.01
  YS02001783YS02001784        2.93      2.94      2.98      2.81         2.74
  YS02001784YS02001785        2.91      2.98      2.91      3.51         2.91
  YS02001788YS02001790        2.90      2.90      3.42      0.01         0.01
  YS02001790YS02001791        3.42      3.42      3.49      2.30         2.30
  YS02001791YS02001793        3.49      3.49      3.72      0.01         0.01
  YS02001910YS02001907        2.74      2.74      3.04      0.01         0.01
  YS02001786YS02001788        2.90      2.91      2.90      3.18         2.90
  YS02001915YS02001910        2.56      2.56      2.74      0.01         0.01
  YS02001918YS02001915        2.34      2.34      2.56      0.01         0.01
  YS02001923YS02001920        2.16      2.16      2.37      0.01         0.01
  YS02001926YS02001923        0.01      0.01      0.01      0.01         0.01
  YS02001929YS02001926        0.01      0.01      0.01      0.01         0.01
  YS02001920YS02001918        2.34      2.34      2.37      0.01         0.01
  YS02001629YS02163301        6.33      6.33      6.33      0.01         0.01
  YS02001619YS02001622        6.31      6.31      6.31      0.01         0.02
  YS02001622YS02001625        6.31      6.31      6.32      0.01         0.01
  YS02001625YS02001629        6.31      6.31      6.32      0.01         0.01
  YS02163301YS02001633        6.33      6.33      6.33      0.01         0.01
  YS02163601YS02164001        6.34      6.34      6.34      0.01         0.01
  YS02164001YS02001641        6.34      6.34      6.34      0.01         0.02
  YS02001641YS02001644        6.34      6.34      6.34      3.05         3.11
  YS02001647YS02001649        6.32      6.32      6.34      0.01         0.01
  YS02006553YS02006556        2.90      2.90      3.09      0.01         0.01
  YS02006556YS02006558        2.96      2.96      3.14      0.01         0.01
  YSB6556YSB1171              0.01      0.01      0.43      0.01         0.01
  YS02001907YS02006553        3.53      3.53      3.72      0.01         0.01
  YS02006558YS02006561        2.61      2.88      2.61      3.40         2.61
  YS02001633YS02163601        6.33      6.33      6.34      0.01         0.01
  YS02001644YS02001647        6.32      6.32      6.34      0.01         0.01
  YS02001745YS02001748        0.84      0.84      6.29      0.01         0.01
  YS02001748YS02001751        6.29      6.29      6.30      0.01         0.01
  YS02001751YS02001754        6.30      6.30      6.31      0.01         0.01
  YS02001754YS02001757        6.31      6.31      6.36      0.01         0.01
  YS02001882YS02001884        2.57      2.57      2.60      0.01         0.01
  YS02001884YS02001887        2.65      2.65      2.67      0.01         0.01
  YS02001890YS02001895        2.54      2.54      2.76      0.01         0.01
  YS02001895YS02001898        2.53      2.53      2.54      0.01         0.01
  YS02001898YS02001901        2.55      2.55      2.64      0.01         0.01
  YS02001901YS02001904        2.62      2.62      2.64      0.01         0.01
  YS02001904YS02001907        2.62      2.62      3.11      0.01         0.01
  YS02001887YS02001890        2.70      2.70      2.72      1.55         0.01
  YS02001652YS02001649        6.32      6.32      6.34      0.01         0.01
  YS02001655YS02001652        6.30      6.30      6.31      0.01         0.01
  YS02001658YS02001655        6.29      6.29      6.30      0.01         0.01
  YS02001661YS02001658        1.26      1.26      6.29      0.01         0.01
  YS02001664YS02001661        0.01      0.01      2.73      0.01         0.01
  YSB1174YSB1171              0.01      0.01      0.16      0.01         0.01
  YS02001793JiankangQianchi        3.66      3.66      5.60      0.01         0.01
  YS02001757CaochengTiaoxuchi        5.90      5.90      6.36      0.01         0.01
  
  
  ***************
  Pumping Summary
  ***************
  
  ---------------------------------------------------------------------------------------------------------
                                                  Min       Avg       Max     Total     Power    % Time Off
                        Percent   Number of      Flow      Flow      Flow    Volume     Usage    Pump Curve
  Pump                 Utilized   Start-Ups       LPS       LPS       LPS  10^6 ltr     Kw-hr    Low   High
  ---------------------------------------------------------------------------------------------------------
  CC-Pump-1               48.93           4      0.00    129.68    200.00     1.740      1.79    0.0    0.0
  CC-Pump-2               57.44           6      0.00    145.53    200.00     2.220      2.41    0.0    3.4
  JK-Pump-1               51.06           3      0.00    204.56    300.00     2.744     31.88    0.0    0.0
  JK-Pump-2               51.05           6      0.00    204.84    300.00     2.730     28.98    0.0    0.0
  XR-Pump-1               91.48           9      0.00     64.14     95.00     1.853     14.43    0.0    0.0
  XR-Pump-2               87.23           6      0.00     74.45     95.00     1.910     14.33    0.0    0.0
  XR-Pump-3               76.58           7      0.00     68.59     95.00     1.653     13.51    0.0    0.0
  XR-Pump-4               57.43           9      0.00     63.06     95.00     0.997      5.71    0.0    0.0
  

  Analysis begun on:  Wed Dec 22 09:46:44 2021
  Analysis ended on:  Wed Dec 22 09:46:47 2021
  Total elapsed time: 00:00:03