
  EPA STORM WATER MANAGEMENT MODEL - VERSION 5.1 (Build 5.3.0.dev0)
  --------------------------------------------------------------

  WARNING 04: minimum elevation drop used for Conduit WS02004404WS02004405
  WARNING 03: negative offset ignored for Link YS02001904YS02001907
  
  *********************************************************
  NOTE: The summary statistics displayed in this report are
  based on results found at every computational time step,  
  not just on results from each reporting time step.
  *********************************************************
  
  ****************
  Analysis Options
  ****************
  Flow Units ............... LPS
  Process Models:
    Rainfall/Runoff ........ YES
    RDII ................... NO
    Snowmelt ............... NO
    Groundwater ............ NO
    Flow Routing ........... YES
    Ponding Allowed ........ NO
    Water Quality .......... NO
  Infiltration Method ...... HORTON
  Flow Routing Method ...... DYNWAVE
  Surcharge Method ......... EXTRAN
  Starting Date ............ 08/28/2015 08:00:00
  Ending Date .............. 08/28/2015 15:50:00
  Antecedent Dry Days ...... 8.0
  Report Time Step ......... 00:01:00
  Wet Time Step ............ 00:01:00
  Dry Time Step ............ 00:01:00
  Routing Time Step ........ 5.00 sec
  Variable Time Step ....... YES
  Maximum Trials ........... 8
  Number of Threads ........ 4
  Head Tolerance ........... 0.001500 m
  
  
  **************************        Volume         Depth
  Runoff Quantity Continuity     hectare-m            mm
  **************************     ---------       -------
  Total Precipitation ......        10.887        23.836
  Evaporation Loss .........         0.000         0.000
  Infiltration Loss ........         2.344         5.132
  Surface Runoff ...........         7.303        15.990
  Final Storage ............         1.241         2.717
  Continuity Error (%) .....        -0.012
  
  
  **************************        Volume        Volume
  Flow Routing Continuity        hectare-m      10^6 ltr
  **************************     ---------     ---------
  Dry Weather Inflow .......         0.616         6.165
  Wet Weather Inflow .......         7.301        73.013
  Groundwater Inflow .......         0.000         0.000
  RDII Inflow ..............         0.000         0.000
  External Inflow ..........         0.102         1.024
  External Outflow .........         1.991        19.908
  Flooding Loss ............         5.486        54.859
  Evaporation Loss .........         0.000         0.000
  Exfiltration Loss ........         0.000         0.000
  Initial Stored Volume ....         0.076         0.761
  Final Stored Volume ......         0.653         6.532
  Continuity Error (%) .....        -0.417
  
  
  *************************
  Highest Continuity Errors
  *************************
  Node HS02004842 (8.73%)
  Node YS02001884 (7.65%)
  Node JK-storage (-2.24%)
  Node HS02004817 (1.69%)
  Node YSB1171 (1.47%)
  
  
  ***************************
  Time-Step Critical Elements
  ***************************
  Link 3 (51.34%)
  Link WS02006252WS02006251 (32.74%)
  Link WS02006280WS02006229 (6.12%)
  Link WS02006238WS02006235 (1.55%)
  Link WS02004404WS02004405 (1.10%)
  
  
  ********************************
  Highest Flow Instability Indexes
  ********************************
  Link WS02006113WS02006111 (39)
  Link YS02163601YS02164001 (31)
  Link YS02163301YS02001633 (31)
  Link YS02001629YS02163301 (31)
  Link YS02001619YS02001622 (30)
  
  
  *************************
  Routing Time Step Summary
  *************************
  Minimum Time Step           :     0.19 sec
  Average Time Step           :     0.86 sec
  Maximum Time Step           :     5.00 sec
  Percent in Steady State     :    -0.00
  Average Iterations per Step :     3.83
  Percent Not Converging      :    12.42
  
  
  ***************************
  Subcatchment Runoff Summary
  ***************************
  
  ------------------------------------------------------------------------------------------------------------------------------
                            Total      Total      Total      Total     Imperv       Perv      Total       Total     Peak  Runoff
                           Precip      Runon       Evap      Infil     Runoff     Runoff     Runoff      Runoff   Runoff   Coeff
  Subcatchment                 mm         mm         mm         mm         mm         mm         mm    10^6 ltr      LPS
  ------------------------------------------------------------------------------------------------------------------------------
  sub0                      23.84       0.00       0.00       1.03      20.90       0.64      21.54        0.02     4.74   0.904
  sub1                      23.84       0.00       0.00       1.74      19.95       0.88      20.83        0.14    30.53   0.874
  sub2                      23.84       0.00       0.00       6.87      14.10       1.95      16.05        0.15    28.29   0.673
  sub3                      23.84       0.00       0.00       7.14      14.06       1.68      15.74        0.35    61.76   0.660
  sub4                      23.84       0.00       0.00       1.87      19.78       0.75      20.54        0.43    72.83   0.862
  sub5                      23.84       0.00       0.00       1.08      20.85       0.59      21.44        0.24    54.28   0.899
  sub7                      23.84       0.00       0.00       1.37      20.44       0.77      21.21        0.07    17.57   0.890
  sub8                      23.84       0.00       0.00       1.38      20.42       0.76      21.19        0.14    32.08   0.889
  sub9                      23.84       0.00       0.00       1.39      20.42       0.76      21.18        0.10    23.95   0.889
  sub10                     23.84       0.00       0.00       1.24      20.63       0.67      21.30        0.23    53.40   0.894
  sub11                     23.84       0.00       0.00       1.22      20.65       0.69      21.34        0.25    59.71   0.895
  sub12                     23.84       0.00       0.00       1.98      19.55       1.11      20.66        0.18    46.17   0.867
  sub14                     23.84       0.00       0.00       1.39      20.42       0.76      21.18        0.20    47.08   0.888
  sub15                     23.84       0.00       0.00       5.16      15.70       1.99      17.70        0.30    64.58   0.742
  sub16                     23.84       0.00       0.00       5.46      15.05       2.40      17.45        0.18    41.69   0.732
  sub17                     23.84       0.00       0.00       5.32      15.27       2.31      17.58        0.15    34.22   0.738
  sub22                     23.84       0.00       0.00       7.63      12.80       2.62      15.42        0.97   202.91   0.647
  sub23                     23.84       0.00       0.00       6.37      14.15       2.45      16.60        0.79   171.10   0.696
  sub60                     23.84       0.00       0.00       2.46      17.68       0.40      18.08        5.48   635.50   0.759
  sub61                     23.84       0.00       0.00       3.48      17.44       0.57      18.00        5.55   687.97   0.755
  sub62                     23.84       0.00       0.00       1.52      19.11       0.39      19.50        5.99   726.55   0.818
  sub63                     23.84       0.00       0.00       6.22      15.11       0.70      15.81        4.78   606.27   0.663
  sub64                     23.84       0.00       0.00       3.15      17.01       0.42      17.43        5.30   611.50   0.731
  sub65                     23.84       0.00       0.00       2.70      17.34       0.40      17.73        5.45   625.37   0.744
  sub66                     23.84       0.00       0.00       6.42      14.44       0.49      14.93        4.58   541.58   0.626
  sub67                     23.84       0.00       0.00       1.46      19.71       0.45      20.16        6.22   787.40   0.846
  sub68                     23.84       0.00       0.00       2.78      18.22       0.56      18.78        5.78   724.10   0.788
  sub69                     23.84       0.00       0.00       2.86      18.50       0.72      19.22        4.49   586.55   0.806
  sub70                     23.84      19.62       0.00       9.95      26.14       3.78      29.92        6.85   801.71   0.689
  sub71                     23.84       0.00       0.00       1.54      18.81       0.36      19.18        4.53   536.91   0.805
  sub72                     23.84       0.00       0.00       1.45      16.32       0.22      16.55        3.37   330.66   0.694
  sub73                     23.84      29.13       0.00       9.95      31.58       5.28      36.86        8.66   884.85   0.696
  sub74                     23.84       0.00       0.00      17.30       5.48       0.57       6.05        2.42   323.16   0.254
  
  
  ******************
  Node Depth Summary
  ******************
  
  ---------------------------------------------------------------------------------
                                 Average  Maximum  Maximum  Time of Max    Reported
                                   Depth    Depth      HGL   Occurrence   Max Depth
  Node                 Type       Meters   Meters   Meters  days hr:min      Meters
  ---------------------------------------------------------------------------------
  WS02001211           JUNCTION     0.63     0.76     5.60     0  01:48        0.76
  WS02001212           JUNCTION     0.36     0.50     5.57     0  01:47        0.50
  WS02001213           JUNCTION     0.61     0.78     5.54     0  01:47        0.78
  WS02003069           JUNCTION     0.45     0.65     5.24     0  01:47        0.65
  WS02003072           JUNCTION     0.51     0.70     5.07     0  01:47        0.70
  WS02003073           JUNCTION     0.31     0.44     4.50     0  01:48        0.44
  WS02003060           JUNCTION     0.40     0.57     5.51     0  01:46        0.57
  WS02003066           JUNCTION     0.25     0.37     5.92     0  01:41        0.37
  WS02003059           JUNCTION     0.67     0.84     5.53     0  01:47        0.84
  WS02003067           JUNCTION     0.60     0.80     6.12     0  01:40        0.80
  WS02004401           JUNCTION     0.72     1.15     7.15     0  01:37        1.15
  WS02004402           JUNCTION     0.75     1.15     7.11     0  01:37        1.15
  WS02004403           JUNCTION     0.77     1.13     7.06     0  01:38        1.13
  WS02004404           JUNCTION     0.84     1.19     7.04     0  01:39        1.18
  WS02004406           JUNCTION     0.84     1.13     6.96     0  01:38        1.12
  WS02004409           JUNCTION     0.54     0.88     6.65     0  01:41        0.88
  WS02004410           JUNCTION     0.55     0.88     6.60     0  01:41        0.88
  WS02004411           JUNCTION     0.57     0.87     6.55     0  01:41        0.87
  WS02004412           JUNCTION     0.58     0.85     6.49     0  01:41        0.85
  WS02004413           JUNCTION     0.73     0.99     6.46     0  01:41        0.99
  WS02004405           JUNCTION     0.83     1.17     7.02     0  01:38        1.16
  WS02006109           JUNCTION     0.81     1.32     7.94     0  01:38        1.31
  WS02006110           JUNCTION     0.79     1.16     7.75     0  01:38        1.15
  WS02006111           JUNCTION     0.25     0.69     7.40     0  01:38        0.69
  WS02006112           JUNCTION     0.90     1.44     7.32     0  01:39        1.43
  WS02006113           JUNCTION     0.37     0.67     7.56     0  01:38        0.66
  WS02006115           JUNCTION     0.62     1.11     7.25     0  01:37        1.11
  WS02006116           JUNCTION     0.70     1.17     7.21     0  01:37        1.16
  WS02006230           JUNCTION     0.79     1.45     8.19     0  01:38        1.44
  WS02006231           JUNCTION     0.53     1.08     8.20     0  01:38        1.06
  WS02006232           JUNCTION     0.66     1.17     8.21     0  01:34        1.15
  WS02006234           JUNCTION     0.57     1.10     8.25     0  01:34        1.03
  WS02006235           JUNCTION     0.60     1.10     8.26     0  01:34        1.03
  WS02006238           JUNCTION     0.62     1.11     8.26     0  01:34        1.04
  WS02006240           JUNCTION     0.51     1.16     8.45     0  01:34        0.90
  WS02006242           JUNCTION     0.56     1.37     8.64     0  01:34        0.92
  WS02006243           JUNCTION     0.44     1.48     8.90     0  01:34        0.77
  WS02006245           JUNCTION     0.41     0.78     8.27     0  01:36        0.72
  WS02006247           JUNCTION     0.43     0.74     8.24     0  01:36        0.70
  WS02006248           JUNCTION     0.37     0.63     8.22     0  01:36        0.62
  WS02006249           JUNCTION     0.40     0.62     8.22     0  03:20        0.62
  WS02006239           JUNCTION     0.57     1.17     8.37     0  01:34        0.98
  WS02006251           JUNCTION     0.38     0.65     8.32     0  03:20        0.65
  WS02006252           JUNCTION     0.30     0.59     8.83     0  05:41        0.59
  WS02006253           JUNCTION     0.41     0.68     8.32     0  03:20        0.67
  WS02006256           JUNCTION     1.03     1.20     8.13     0  04:40        1.20
  WS02004138           JUNCTION     0.14     0.19     7.44     0  04:10        0.19
  WS02004407           JUNCTION     0.24     0.38     6.69     0  01:39        0.38
  WS02006228           JUNCTION     0.82     1.45     8.10     0  01:37        1.44
  WS02006229           JUNCTION     0.80     1.49     8.19     0  01:37        1.49
  WS02006280           JUNCTION     0.08     0.28     8.55     0  01:37        0.28
  WS02006284           JUNCTION     0.39     0.68     9.08     0  01:36        0.68
  WS02006287           JUNCTION     0.12     0.43     9.38     0  01:35        0.43
  WSF200               JUNCTION     0.24     0.40     5.64     0  01:45        0.40
  HS02004901           JUNCTION     0.15     0.40    10.23     0  01:33        0.40
  HS02004881           JUNCTION     0.01     0.06     9.09     0  01:36        0.06
  HS02004876           JUNCTION     0.05     0.18     9.21     0  01:36        0.18
  HS02004870           JUNCTION     0.02     0.11     9.39     0  01:36        0.11
  HS02004862           JUNCTION     0.03     0.12     9.50     0  01:37        0.12
  HS02004856           JUNCTION     0.09     0.16     9.59     0  01:37        0.16
  HS02004852           JUNCTION     0.02     0.09     9.60     0  01:37        0.09
  HS02004848           JUNCTION     0.02     0.08     9.68     0  01:37        0.08
  HS02004842           JUNCTION     0.34     0.41     9.68     0  01:37        0.41
  HS02004837           JUNCTION     0.04     0.10     9.68     0  01:37        0.10
  HS02004830           JUNCTION     0.05     0.13     9.60     0  01:36        0.13
  HS02004824           JUNCTION     0.03     0.17     9.57     0  01:35        0.17
  HS02004817           JUNCTION     0.47     0.74     9.59     0  01:35        0.74
  HS02004807           JUNCTION     0.15     0.41     9.58     0  01:36        0.40
  HS02004802           JUNCTION     0.19     0.44     9.56     0  01:36        0.44
  HS02004799           JUNCTION     0.15     0.51     9.72     0  01:34        0.51
  HS02004792           JUNCTION     0.05     0.24     9.76     0  01:33        0.24
  HS02004788           JUNCTION     0.04     0.17    10.07     0  01:34        0.17
  HS02004785           JUNCTION     0.06     0.27    10.17     0  01:33        0.27
  HS02004777           JUNCTION     0.17     0.41    10.21     0  01:33        0.41
  HS02004770           JUNCTION     0.14     0.39    10.22     0  01:33        0.39
  HS02004480           JUNCTION     0.10     0.42     9.66     0  01:34        0.42
  HS02004479           JUNCTION     0.14     0.46     9.66     0  01:34        0.46
  HS02004478           JUNCTION     0.08     0.32     9.54     0  01:36        0.32
  YS02001745           JUNCTION     0.83     1.04     8.56     0  03:01        1.04
  YS02001748           JUNCTION     1.25     1.76     8.84     0  01:32        1.46
  YS02001751           JUNCTION     1.44     1.64     8.52     0  02:59        1.64
  YS02001754           JUNCTION     1.70     1.89     8.50     0  02:59        1.89
  YS02001762           JUNCTION     1.90     2.08     8.48     0  02:59        2.07
  YS02001765           JUNCTION     1.85     2.03     8.48     0  02:59        2.02
  YS02001767           JUNCTION     1.81     1.98     8.47     0  02:59        1.97
  YS02001770           JUNCTION     1.80     1.95     8.44     0  02:15        1.95
  YS02001774           JUNCTION     1.87     2.00     8.43     0  02:17        1.99
  YS02001779           JUNCTION     1.60     1.68     8.37     0  01:31        1.68
  YS02001882           JUNCTION     0.78     1.67     8.39     0  01:36        1.63
  YS02001884           JUNCTION     0.87     1.75     8.37     0  01:36        1.73
  YS02001759           JUNCTION     1.93     2.12     8.49     0  02:59        2.11
  YS02001887           JUNCTION     0.95     1.82     8.36     0  02:00        1.81
  YS02001890           JUNCTION     0.98     1.81     8.32     0  01:36        1.81
  YS02001898           JUNCTION     0.74     1.58     8.31     0  01:36        1.56
  YS02001901           JUNCTION     0.86     1.69     8.30     0  01:36        1.67
  YS02001904           JUNCTION     0.84     1.65     8.28     0  01:36        1.63
  YS02001907           JUNCTION     1.17     1.96     8.25     0  01:36        1.96
  YS02001910           JUNCTION     0.96     1.97     8.48     0  01:37        1.79
  YS02001915           JUNCTION     0.76     1.91     8.63     0  01:37        1.62
  YS02001918           JUNCTION     0.49     1.81     8.88     0  01:37        1.31
  YS02001619           JUNCTION     1.39     1.61     8.54     0  01:31        1.50
  YS02001629           JUNCTION     1.75     1.85     8.40     0  01:31        1.84
  YS02001641           JUNCTION     1.84     1.95     8.39     0  01:32        1.93
  YS02001644           JUNCTION     1.84     1.92     8.35     0  01:32        1.92
  YS02001652           JUNCTION     1.70     2.05     8.65     0  04:24        1.86
  YS02001655           JUNCTION     1.46     2.01     8.86     0  01:39        1.67
  YS02001920           JUNCTION     0.60     2.08     9.09     0  01:37        1.40
  YS02001923           JUNCTION     0.41     1.99     9.25     0  01:37        1.17
  YS02001926           JUNCTION     0.43     1.90     9.35     0  01:37        0.94
  YS02001929           JUNCTION     0.27     1.78     9.47     0  01:37        0.71
  YS02001658           JUNCTION     1.18     1.94     9.09     0  01:39        1.43
  YS02001661           JUNCTION     0.94     1.88     9.29     0  04:24        1.26
  YS02001664           JUNCTION     0.43     0.64     8.57     0  01:33        0.64
  YS02001622           JUNCTION     1.41     1.62     8.52     0  01:31        1.51
  YS02001633           JUNCTION     1.84     1.97     8.42     0  01:32        1.94
  YS02001649           JUNCTION     1.90     2.05     8.44     0  01:33        2.05
  YS02001757           JUNCTION     2.03     2.21     8.47     0  02:49        2.21
  YS02001895           JUNCTION     0.74     1.57     8.32     0  01:36        1.56
  YS02001625           JUNCTION     1.69     1.78     8.38     0  01:31        1.78
  YS02163301           JUNCTION     1.78     1.96     8.48     0  01:31        1.88
  YS02163601           JUNCTION     1.89     2.01     8.41     0  01:32        1.98
  YS02164001           JUNCTION     1.82     1.94     8.40     0  01:32        1.92
  YS02001647           JUNCTION     1.68     1.81     8.42     0  01:39        1.79
  YSB1154              JUNCTION     0.28     0.61     9.67     0  01:34        0.61
  YSB6556              JUNCTION     0.18     0.50     9.67     0  01:34        0.50
  YSB1174              JUNCTION     0.23     0.56     9.67     0  01:34        0.56
  YSB1171              JUNCTION     0.44     0.76     9.67     0  01:34        0.76
  YS02006553           JUNCTION     1.17     1.97     8.26     0  01:58        1.97
  YS02006561           JUNCTION     0.48     1.15     7.81     0  01:36        1.09
  YS02006556           JUNCTION     1.14     1.94     8.26     0  01:36        1.93
  YS02006558           JUNCTION     1.18     1.99     8.25     0  02:59        1.98
  YS02001783           JUNCTION     0.77     1.54     7.68     0  01:36        1.48
  YS02001784           JUNCTION     0.77     1.83     7.89     0  01:32        1.42
  YS02001786           JUNCTION     0.70     2.07     8.10     0  01:32        1.27
  YS02001788           JUNCTION     0.64     1.70     7.68     0  01:32        1.13
  YS02001790           JUNCTION     0.80     1.96     7.60     0  01:31        1.32
  YS02001791           JUNCTION     0.82     1.80     7.27     0  05:31        1.40
  YS02001793           JUNCTION     1.21     1.97     6.80     0  01:32        1.83
  WS02004139           JUNCTION     0.57     0.70     5.61     0  01:47        0.70
  WSC                  OUTFALL      0.31     0.44     1.11     0  01:48        0.44
  3                    OUTFALL      0.09     0.20     6.20     0  04:40        0.20
  4                    OUTFALL      0.02     0.12     7.12     0  03:20        0.12
  5                    OUTFALL      0.00     0.00     5.00     0  00:00        0.00
  JK-storage           STORAGE      4.33     5.80     6.60     0  01:32        5.80
  CC-storage           STORAGE      1.26     1.48     8.48     0  02:24        1.48
  XR-storage           STORAGE      7.39     7.72     5.72     0  01:51        7.72
  
  
  *******************
  Node Inflow Summary
  *******************
  
  -------------------------------------------------------------------------------------------------
                                  Maximum  Maximum                  Lateral       Total        Flow
                                  Lateral    Total  Time of Max      Inflow      Inflow     Balance
                                   Inflow   Inflow   Occurrence      Volume      Volume       Error
  Node                 Type           LPS      LPS  days hr:min    10^6 ltr    10^6 ltr     Percent
  -------------------------------------------------------------------------------------------------
  WS02001211           JUNCTION      7.35   375.31     0  04:10       0.207         6.4       0.337
  WS02001212           JUNCTION      0.00   366.52     0  04:11           0        6.38       0.200
  WS02001213           JUNCTION      0.00   362.60     0  04:11           0        6.37       0.278
  WS02003069           JUNCTION      0.32  1134.21     0  01:47     0.00902        16.3       0.141
  WS02003072           JUNCTION      0.00  1134.15     0  01:47           0        16.3       0.182
  WS02003073           JUNCTION      1.82  1136.05     0  01:48      0.0514        16.3       0.195
  WS02003060           JUNCTION     16.53  1133.95     0  01:46       0.466        16.4       0.136
  WS02003066           JUNCTION      0.00   842.94     0  01:41           0        9.58       0.047
  WS02003059           JUNCTION      0.00   358.36     0  04:12           0        6.35       0.459
  WS02003067           JUNCTION      0.00   842.78     0  01:41           0        9.59       0.098
  WS02004401           JUNCTION      0.00   849.49     0  01:39           0        9.83       0.221
  WS02004402           JUNCTION      0.00   849.39     0  01:39           0         9.8       0.208
  WS02004403           JUNCTION      0.00   849.52     0  01:39           0        9.78       0.189
  WS02004404           JUNCTION      0.16   850.01     0  01:39     0.00457        9.77       0.141
  WS02004406           JUNCTION      0.00   849.76     0  01:39           0        9.74       0.342
  WS02004409           JUNCTION      0.00   849.24     0  01:39           0         9.7       0.171
  WS02004410           JUNCTION      0.00   844.50     0  01:40           0        9.68       0.193
  WS02004411           JUNCTION      0.00   843.26     0  01:41           0        9.66       0.197
  WS02004412           JUNCTION      0.00   842.93     0  01:41           0        9.64       0.212
  WS02004413           JUNCTION      0.00   842.85     0  01:41           0        9.62       0.320
  WS02004405           JUNCTION      0.04   850.98     0  01:39     0.00107        9.76       0.214
  WS02006109           JUNCTION      1.23   823.27     0  01:37      0.0347         9.8       0.204
  WS02006110           JUNCTION      0.00   823.18     0  01:37           0        9.78       0.214
  WS02006111           JUNCTION      0.00   815.89     0  01:39           0        9.74       0.038
  WS02006112           JUNCTION     34.22   849.48     0  01:39       0.151        9.89       0.272
  WS02006113           JUNCTION      0.00   823.18     0  01:37           0        9.76       0.111
  WS02006115           JUNCTION      0.00   849.34     0  01:39           0        9.86       0.240
  WS02006116           JUNCTION      0.00   849.31     0  01:39           0        9.84       0.161
  WS02006230           JUNCTION     10.28   397.15     0  05:50        0.29        5.83       0.193
  WS02006231           JUNCTION      0.00   387.37     0  05:42           0        5.53       0.210
  WS02006232           JUNCTION      0.00   387.39     0  05:42           0        5.52       0.248
  WS02006234           JUNCTION      0.00   389.22     0  05:42           0         5.5       0.202
  WS02006235           JUNCTION      0.00   388.96     0  05:42           0        5.59       0.121
  WS02006238           JUNCTION      0.00   317.12     0  03:23           0        3.93       0.192
  WS02006240           JUNCTION      0.00   322.32     0  06:51           0        3.94       0.317
  WS02006242           JUNCTION      0.00   333.20     0  06:51           0        3.95       0.386
  WS02006243           JUNCTION      0.00   337.76     0  06:51           0        3.95      -0.041
  WS02006245           JUNCTION      0.00   342.09     0  06:51           0        3.96       0.282
  WS02006247           JUNCTION      0.00   346.44     0  06:50           0        3.96       0.182
  WS02006248           JUNCTION      0.00   350.61     0  06:50           0        3.96       0.085
  WS02006249           JUNCTION      0.00   430.47     0  03:20           0        4.25       0.270
  WS02006239           JUNCTION      0.00   315.76     0  03:22           0        3.93       0.248
  WS02006251           JUNCTION      0.08   430.84     0  03:20     0.00217        4.28       0.198
  WS02006252           JUNCTION      0.00   400.00     0  05:40           0        3.43       0.012
  WS02006253           JUNCTION      4.74   178.63     0  01:36      0.0174       0.854       0.408
  WS02006256           JUNCTION      0.00   600.00     0  06:20           0        4.97       0.044
  WS02004138           JUNCTION      0.00   379.95     0  04:10           0        6.21       0.060
  WS02004407           JUNCTION      0.00   849.74     0  01:39           0         9.7       0.077
  WS02006228           JUNCTION      0.00   821.95     0  01:37           0        9.78       0.156
  WS02006229           JUNCTION      0.00   826.33     0  01:36           0        9.86       0.133
  WS02006280           JUNCTION      0.00   821.16     0  01:36           0        4.12       0.002
  WS02006284           JUNCTION      0.10   821.12     0  01:36      0.0027        4.12       0.019
  WS02006287           JUNCTION      0.00   820.99     0  01:36           0        4.12       0.018
  WSF200               JUNCTION      0.00   843.13     0  01:41           0        9.58       0.046
  HS02004901           JUNCTION     41.69    41.69     0  01:31       0.183       0.183       0.971
  HS02004881           JUNCTION     17.57   174.51     0  01:36      0.0714       0.818       0.077
  HS02004876           JUNCTION     30.53   157.86     0  01:36       0.138       0.747       0.075
  HS02004870           JUNCTION     32.08   127.65     0  01:36       0.135       0.609       0.018
  HS02004862           JUNCTION     28.49    96.84     0  01:37       0.155       0.474       0.037
  HS02004856           JUNCTION     23.95    68.40     0  01:36       0.102        0.32       0.450
  HS02004852           JUNCTION      0.00    45.40     0  01:37           0       0.218       0.028
  HS02004848           JUNCTION     61.76    61.76     0  01:40       0.354       0.354       0.013
  HS02004842           JUNCTION      0.00    18.52     0  01:52           0       0.149       9.568
  HS02004837           JUNCTION     59.75    74.34     0  01:37       0.414        0.55       0.147
  HS02004830           JUNCTION      0.15    74.45     0  01:37     0.00423        0.54       0.229
  HS02004824           JUNCTION     72.88   147.18     0  01:41        0.43       0.969       0.056
  HS02004817           JUNCTION      0.60   150.01     0  01:41      0.0169       0.985       1.721
  HS02004807           JUNCTION     59.71   204.74     0  01:38       0.248        1.22       0.360
  HS02004802           JUNCTION      0.00   204.73     0  01:39           0        1.22       0.325
  HS02004799           JUNCTION     47.08   525.53     0  01:33       0.202         2.5       0.119
  HS02004792           JUNCTION    203.19   478.64     0  01:33       0.982         2.3       0.016
  HS02004788           JUNCTION     66.25   277.12     0  01:34       0.351        1.32       0.029
  HS02004785           JUNCTION      0.15   210.95     0  01:33     0.00423       0.971       0.053
  HS02004777           JUNCTION      0.03   211.18     0  01:32    0.000846       0.971       0.540
  HS02004770           JUNCTION    171.10   212.07     0  01:32       0.791       0.972       0.316
  HS02004480           JUNCTION      0.00   623.63     0  01:34           0        2.92       0.036
  HS02004479           JUNCTION      0.00    98.35     0  01:34           0       0.432       0.172
  HS02004478           JUNCTION      0.00   820.98     0  01:35           0        4.12       0.008
  YS02001745           JUNCTION    635.50   635.50     0  03:01        5.48        5.48       0.215
  YS02001748           JUNCTION      0.04   635.82     0  03:01     0.00127        5.47       0.414
  YS02001751           JUNCTION      0.01   636.04     0  03:01     0.00031        5.45       0.447
  YS02001754           JUNCTION      0.26   636.49     0  03:01     0.00733        5.44       0.448
  YS02001762           JUNCTION      0.00   401.48     0  01:41           0        3.13       0.680
  YS02001765           JUNCTION      0.00   401.58     0  01:41           0        3.12       0.788
  YS02001767           JUNCTION      0.54   401.48     0  01:41      0.0151        3.15       1.146
  YS02001770           JUNCTION    726.70  1084.84     0  03:01           6        7.76       0.407
  YS02001774           JUNCTION      0.00   851.17     0  02:59           0        6.02       0.417
  YS02001779           JUNCTION      0.01   851.17     0  02:59    0.000141           6       0.260
  YS02001882           JUNCTION      0.00    78.32     0  01:34           0      0.0484       4.571
  YS02001884           JUNCTION      0.00    80.13     0  01:34           0      0.0891       8.290
  YS02001759           JUNCTION    688.01   890.97     0  01:45        5.55        6.89       0.333
  YS02001887           JUNCTION    787.85   787.85     0  03:01        6.23        6.27       0.150
  YS02001890           JUNCTION      0.00   787.94     0  03:01           0        6.21       0.156
  YS02001898           JUNCTION      0.00   542.10     0  01:36           0        5.25       0.072
  YS02001901           JUNCTION      0.00   542.20     0  01:36           0        5.25       0.127
  YS02001904           JUNCTION      0.00   542.13     0  01:36           0        5.24       0.116
  YS02001907           JUNCTION      0.00  1384.62     0  03:01           0        13.2       0.192
  YS02001910           JUNCTION      0.00   868.08     0  03:01           0        7.99       0.177
  YS02001915           JUNCTION    536.93   867.99     0  03:01        4.53        8.04       0.070
  YS02001918           JUNCTION      0.00   392.93     0  01:38           0        3.55       0.051
  YS02001619           JUNCTION    541.58   541.58     0  03:01        4.58        4.58       0.263
  YS02001629           JUNCTION      0.00   371.75     0  01:31           0        1.87       1.497
  YS02001641           JUNCTION      0.00   473.26     0  01:32           0        5.94       0.354
  YS02001644           JUNCTION    611.54  1881.92     0  03:01         5.3        18.3       0.143
  YS02001652           JUNCTION      0.00   607.74     0  03:01           0        4.73       0.480
  YS02001655           JUNCTION      0.15   607.65     0  03:01     0.00434        4.76       0.534
  YS02001920           JUNCTION      2.87   392.72     0  01:38      0.0809        3.52       0.098
  YS02001923           JUNCTION      0.04   333.31     0  03:01     0.00106        3.42       0.040
  YS02001926           JUNCTION      0.05   418.86     0  01:36     0.00147        3.39       0.093
  YS02001929           JUNCTION    330.66   330.66     0  03:01        3.37        3.37       0.020
  YS02001658           JUNCTION      0.00   607.37     0  03:01           0        4.77       0.475
  YS02001661           JUNCTION      0.00   801.62     0  01:47           0         5.4       0.089
  YS02001664           JUNCTION    606.27   606.27     0  03:01        4.78        5.41       0.116
  YS02001622           JUNCTION      0.00   541.64     0  03:01           0        4.57       0.694
  YS02001633           JUNCTION    625.57   625.57     0  03:01        5.46        6.64       0.481
  YS02001649           JUNCTION      0.00  1415.61     0  03:01           0        10.4       0.357
  YS02001757           JUNCTION      0.00  2166.07     0  01:45           0        12.3       0.745
  YS02001895           JUNCTION      0.00   541.96     0  01:36           0        5.24       0.110
  YS02001625           JUNCTION      0.00   743.92     0  03:01           0        5.19       0.775
  YS02163301           JUNCTION      0.00   312.08     0  01:30           0        1.87       1.293
  YS02163601           JUNCTION      0.11   470.28     0  01:32      0.0031        5.95       0.504
  YS02164001           JUNCTION      0.00   470.96     0  01:32           0        5.93       0.338
  YS02001647           JUNCTION      0.00   846.70     0  02:56           0        8.04       0.353
  YSB1154              JUNCTION     54.28    54.28     0  01:34       0.243       0.243       0.595
  YSB6556              JUNCTION      0.00    54.36     0  01:35           0       0.244       0.519
  YSB1174              JUNCTION     46.17    46.17     0  01:30       0.181       0.181       0.711
  YSB1171              JUNCTION      0.00    98.45     0  01:34           0       0.431       1.495
  YS02006553           JUNCTION      0.00   699.70     0  03:50           0        7.61       0.212
  YS02006561           JUNCTION      0.00   973.14     0  02:59           0        13.3       0.005
  YS02006556           JUNCTION      0.00   699.91     0  03:50           0        7.62       0.152
  YS02006558           JUNCTION    724.98   973.77     0  02:59         5.8        13.4       0.040
  YS02001783           JUNCTION      0.00   973.16     0  02:59           0        13.3       0.020
  YS02001784           JUNCTION      1.06   974.08     0  02:59      0.0299        13.4       0.034
  YS02001786           JUNCTION      0.06   974.18     0  02:59     0.00159        13.4       0.032
  YS02001788           JUNCTION      0.07   974.25     0  02:59       0.002        13.4       0.018
  YS02001790           JUNCTION      0.15   974.61     0  02:59     0.00437        13.4       0.019
  YS02001791           JUNCTION      0.00   974.30     0  02:59           0        13.4       0.010
  YS02001793           JUNCTION      0.00   974.59     0  02:59           0        13.4       0.000
  WS02004139           JUNCTION      0.32   378.97     0  04:10     0.00905        6.22       0.417
  WSC                  OUTFALL       0.00  1136.28     0  01:48           0        16.3       0.000
  3                    OUTFALL       0.00   480.46     0  04:40           0        3.32       0.000
  4                    OUTFALL       0.00   134.13     0  03:20           0        0.28       0.000
  5                    OUTFALL       0.00     0.00     0  00:00           0           0       0.000 ltr
  JK-storage           STORAGE       0.00   974.90     0  02:59           0        13.5      -2.192
  CC-storage           STORAGE       0.00  2167.16     0  01:45           0        7.28       0.895
  XR-storage           STORAGE    1408.02  1408.02     0  03:01        16.7        17.3       0.002
  
  
  **********************
  Node Surcharge Summary
  **********************
  
  Surcharging occurs when water rises above the top of the highest conduit.
  ---------------------------------------------------------------------
                                               Max. Height   Min. Depth
                                   Hours       Above Crown    Below Rim
  Node                 Type      Surcharged         Meters       Meters
  ---------------------------------------------------------------------
  WS02004401           JUNCTION        0.64          0.151        1.509
  WS02004402           JUNCTION        0.72          0.150        1.590
  WS02004403           JUNCTION        0.73          0.135        1.895
  WS02004404           JUNCTION        1.10          0.188        2.592
  WS02004406           JUNCTION        0.95          0.125        2.325
  WS02004405           JUNCTION        1.02          0.165        2.635
  WS02006109           JUNCTION        2.63          0.500        1.320
  WS02006110           JUNCTION        1.47          0.254        1.596
  WS02006112           JUNCTION        1.93          0.441        1.239
  WS02006115           JUNCTION        0.37          0.104        2.146
  WS02006116           JUNCTION        0.41          0.106        2.184
  WS02006230           JUNCTION        0.94          0.367        1.203
  WS02006231           JUNCTION        0.98          0.367        1.163
  WS02006232           JUNCTION        1.97          0.474        1.006
  WS02006234           JUNCTION        0.98          0.376        0.864
  WS02006235           JUNCTION        1.37          0.387        0.903
  WS02006238           JUNCTION        1.52          0.393        1.037
  WS02006240           JUNCTION        0.75          0.451        0.939
  WS02006242           JUNCTION        1.19          0.641        0.179
  WS02006243           JUNCTION        0.25          0.770        0.000
  WS02006245           JUNCTION        0.03          0.073        0.777
  WS02006247           JUNCTION        0.01          0.034        0.726
  WS02006239           JUNCTION        0.92          0.425        0.865
  WS02006252           JUNCTION        1.00          0.189        0.911
  WS02006228           JUNCTION        2.61          0.620        1.580
  HS02004817           JUNCTION        0.32          0.039        1.701
  YS02001745           JUNCTION        0.79          0.042        1.308
  YS02001748           JUNCTION        6.29          0.683        0.507
  YS02001751           JUNCTION        6.30          0.644        0.556
  YS02001754           JUNCTION        6.31          0.843        0.307
  YS02001762           JUNCTION        6.34          1.078        0.072
  YS02001765           JUNCTION        6.34          1.030        0.070
  YS02001767           JUNCTION        6.33          0.978        0.052
  YS02001770           JUNCTION        6.33          0.920        0.000
  YS02001774           JUNCTION        6.34          1.004        0.046
  YS02001779           JUNCTION        6.31          0.680        0.000
  YS02001882           JUNCTION        2.57          0.671        0.159
  YS02001884           JUNCTION        2.60          0.694        0.176
  YS02001759           JUNCTION        6.35          1.123        0.087
  YS02001887           JUNCTION        2.67          0.769        0.181
  YS02001890           JUNCTION        2.70          0.760        0.000
  YS02001898           JUNCTION        2.54          0.547        0.193
  YS02001901           JUNCTION        2.65          0.689        0.181
  YS02001904           JUNCTION        2.63          0.651        0.199
  YS02001907           JUNCTION        3.05          0.950        0.000
  YS02001910           JUNCTION        2.75          0.970        0.130
  YS02001915           JUNCTION        2.57          0.910        0.090
  YS02001918           JUNCTION        2.35          0.810        0.000
  YS02001619           JUNCTION        6.30          0.610        0.000
  YS02001629           JUNCTION        6.31          0.470        0.000
  YS02001641           JUNCTION        6.34          0.949        0.151
  YS02001644           JUNCTION        6.34          0.920        0.000
  YS02001652           JUNCTION        6.31          1.021        0.109
  YS02001655           JUNCTION        6.30          1.006        0.194
  YS02001920           JUNCTION        2.39          1.082        0.058
  YS02001923           JUNCTION        0.01          0.781        0.039
  YS02001926           JUNCTION        0.01          0.900        0.000
  YS02001929           JUNCTION        0.01          0.780        0.000
  YS02001658           JUNCTION        6.29          0.944        0.356
  YS02001661           JUNCTION        1.30          0.813        0.577
  YS02001622           JUNCTION        6.31          0.620        0.000
  YS02001633           JUNCTION        6.33          0.947        0.113
  YS02001649           JUNCTION        6.34          1.050        0.000
  YS02001757           JUNCTION        6.36          1.210        0.000
  YS02001895           JUNCTION        2.55          0.573        0.177
  YS02001625           JUNCTION        6.32          0.780        0.000
  YS02163301           JUNCTION        6.33          0.960        0.070
  YS02163601           JUNCTION        6.34          1.011        0.069
  YS02164001           JUNCTION        6.33          0.944        0.156
  YS02001647           JUNCTION        6.32          0.809        0.091
  YS02006553           JUNCTION        3.09          0.972        0.218
  YS02006561           JUNCTION        2.46          0.346        0.804
  YS02006556           JUNCTION        2.90          0.904        0.446
  YS02006558           JUNCTION        2.87          0.888        0.512
  YS02001783           JUNCTION        2.95          0.739        0.861
  YS02001784           JUNCTION        3.06          1.026        0.464
  YS02001786           JUNCTION        2.96          1.269        0.161
  YS02001788           JUNCTION        2.94          0.903        0.577
  YS02001790           JUNCTION        4.14          1.157        0.000
  YS02001791           JUNCTION        4.26          0.999        0.921
  YS02001793           JUNCTION        4.61          0.972        1.628
  
  
  *********************
  Node Flooding Summary
  *********************
  
  Flooding refers to all water that overflows a node, whether it ponds or not.
  --------------------------------------------------------------------------
                                                             Total   Maximum
                                 Maximum   Time of Max       Flood    Ponded
                        Hours       Rate    Occurrence      Volume     Depth
  Node                 Flooded       LPS   days hr:min    10^6 ltr    Meters
  --------------------------------------------------------------------------
  WS02006243              0.01     25.54      0  01:34       0.000     0.000
  YS02001770              0.87    233.55      0  03:01       0.331     0.000
  YS02001779              4.39    851.17      0  02:59       5.979     0.000
  YS02001890              1.67    271.47      0  03:01       0.965     0.000
  YS02001907              2.21   1137.30      0  03:01       5.568     0.000
  YS02001918              0.01     33.08      0  01:37       0.000     0.000
  YS02001619              0.01     27.05      0  01:31       0.000     0.000
  YS02001629              0.01    325.89      0  01:31       0.004     0.000
  YS02001644              6.19   1881.86      0  03:01      17.375     0.000
  YS02001926              0.01    234.19      0  01:37       0.000     0.000
  YS02001929              0.01     93.17      0  01:37       0.000     0.000
  YS02001622              0.01     67.17      0  01:31       0.000     0.000
  YS02001649              1.10    568.90      0  03:01       1.473     0.000
  YS02001757              0.27    187.97      0  03:01       0.089     0.000
  YS02001625              2.89    743.88      0  03:01       3.938     0.000
  YS02001790              0.01    150.14      0  01:31       0.000     0.000
  JK-storage              3.54    974.83      0  02:59       8.958     0.000
  XR-storage              5.97   1132.41      0  03:01      10.181     0.000
  
  
  **********************
  Storage Volume Summary
  **********************
  
  --------------------------------------------------------------------------------------------------
                         Average     Avg  Evap Exfil       Maximum     Max    Time of Max    Maximum
                          Volume    Pcnt  Pcnt  Pcnt        Volume    Pcnt     Occurrence    Outflow
  Storage Unit           1000 m3    Full  Loss  Loss       1000 m3    Full    days hr:min        LPS
  --------------------------------------------------------------------------------------------------
  JK-storage               0.218      75     0     0         0.291     100       0  01:32     600.00
  CC-storage               3.522      22     0     0         4.118      26       0  02:24     400.00
  XR-storage               0.887      96     0     0         0.926     100       0  01:51     379.95
  
  
  ***********************
  Outfall Loading Summary
  ***********************
  
  -----------------------------------------------------------
                         Flow       Avg       Max       Total
                         Freq      Flow      Flow      Volume
  Outfall Node           Pcnt       LPS       LPS    10^6 ltr
  -----------------------------------------------------------
  WSC                  100.00    607.70   1136.28      16.310
  3                     79.34    206.99    480.46       3.318
  4                     23.02     51.82    134.13       0.280
  5                      0.00      0.00      0.00       0.000
  -----------------------------------------------------------
  System                50.59    866.51   1253.50      19.908
  
  
  ********************
  Link Flow Summary
  ********************
  
  -----------------------------------------------------------------------------
                                 Maximum  Time of Max   Maximum    Max/    Max/
                                  |Flow|   Occurrence   |Veloc|    Full    Full
  Link                 Type          LPS  days hr:min     m/sec    Flow   Depth
  -----------------------------------------------------------------------------
  WS02003066WSF200     CONDUIT    843.13     0  01:41      3.00    0.14    0.30
  WS02006287WS02006284 CONDUIT    821.02     0  01:36      2.53    0.38    0.43
  WS02006284WS02006280 CONDUIT    821.16     0  01:36      2.76    0.34    0.40
  WS02006280WS02006229 CONDUIT    821.14     0  01:36      4.49    0.18    0.30
  WS02006229WS02006228 CONDUIT    821.95     0  01:37      1.64    2.72    1.00
  WS02006256WS02006235 CONDUIT    139.76     0  05:17      1.98    1.48    1.00
  WS02006253WS02006251 CONDUIT    193.84     0  01:36      0.81    0.58    0.94
  WS02006252WS02006251 CONDUIT    400.37     0  06:50      3.19    1.47    1.00
  WS02006251WS02006249 CONDUIT    430.47     0  03:20      1.18    1.24    0.90
  WS02006249WS02006248 CONDUIT    350.61     0  06:50      1.16    1.92    0.87
  WS02006248WS02006247 CONDUIT    346.44     0  06:50      1.12    0.75    0.94
  WS02006247WS02006245 CONDUIT    342.09     0  06:51      1.09    2.71    1.00
  WS02006245WS02006243 CONDUIT    337.76     0  06:51      1.11    1.00    1.00
  WS02006243WS02006242 CONDUIT    333.20     0  06:51      1.01    0.71    1.00
  WS02006242WS02006240 CONDUIT    322.32     0  06:51      0.95    1.28    1.00
  WS02006240WS02006239 CONDUIT    315.76     0  03:22      0.99    0.99    1.00
  WS02006239WS02006238 CONDUIT    317.12     0  03:23      0.87    1.01    1.00
  WS02006238WS02006235 CONDUIT    317.56     0  03:23      0.84    0.71    1.00
  WS02006235WS02006234 CONDUIT    389.22     0  05:42      1.03    4.11    1.00
  WS02006234WS02006232 CONDUIT    387.39     0  05:42      1.01    0.78    1.00
  WS02006232WS02006231 CONDUIT    387.37     0  05:42      1.06    0.81    1.00
  WS02006231WS02006230 CONDUIT    386.87     0  05:50      1.35    5.87    1.00
  WS02006230WS02006229 CONDUIT    397.17     0  05:50      1.03    8.84    1.00
  WS02006228WS02006109 CONDUIT    822.04     0  01:37      1.64    3.59    1.00
  WS02006116WS02004401 CONDUIT    849.49     0  01:39      1.08    1.17    1.00
  WS02006115WS02006116 CONDUIT    849.31     0  01:39      1.20    1.09    1.00
  WS02006113WS02006111 CONDUIT    815.89     0  01:39      2.70    0.98    0.85
  WS02006112WS02006115 CONDUIT    849.34     0  01:39      1.08    0.50    1.00
  WS02006111WS02006112 CONDUIT    818.89     0  01:39      1.85    0.39    0.92
  WS02006110WS02006113 CONDUIT    823.18     0  01:37      1.77    0.75    0.92
  WS02006109WS02006110 CONDUIT    823.18     0  01:37      1.64    1.58    1.00
  WS02004411WS02004412 CONDUIT    842.93     0  01:41      1.30    1.20    0.86
  WS02004401WS02004402 CONDUIT    849.39     0  01:39      1.08    1.02    1.00
  WS02004413WS02003067 CONDUIT    842.78     0  01:41      1.43    0.36    0.70
  WS02004412WS02004413 CONDUIT    842.85     0  01:41      1.23    0.56    0.92
  WS02004410WS02004411 CONDUIT    843.26     0  01:41      1.24    1.15    0.87
  WS02004409WS02004410 CONDUIT    844.50     0  01:40      1.27    1.09    0.88
  WS02004407WS02004409 CONDUIT    849.24     0  01:39      1.82    0.30    0.63
  WS02004406WS02004407 CONDUIT    849.74     0  01:39      1.47    0.38    0.69
  WS02004405WS02004406 CONDUIT    849.76     0  01:39      1.08    1.68    1.00
  WS02004404WS02004405 CONDUIT    850.94     0  01:39      1.08    8.34    1.00
  WS02004403WS02004404 CONDUIT    849.85     0  01:39      1.08    0.61    1.00
  WS02004402WS02004403 CONDUIT    849.52     0  01:39      1.08    1.22    1.00
  WS02004139WS02001211 CONDUIT    367.96     0  04:10      0.81    0.47    0.57
  WS02004138WS02004139 CONDUIT    378.65     0  04:10      3.34    0.08    0.42
  WS02003067WS02003066 CONDUIT    842.94     0  01:41      1.55    0.27    0.48
  WS02001213WS02003059 CONDUIT    358.36     0  04:12      0.78    0.59    0.80
  WS02001212WS02001213 CONDUIT    362.60     0  04:11      1.20    0.56    0.48
  WS02001211WS02001212 CONDUIT    366.52     0  04:11      0.74    0.28    0.63
  WS02003072WS02003073 CONDUIT   1134.23     0  01:48      1.85    2.45    0.53
  WS02003069WS02003072 CONDUIT   1134.15     0  01:47      1.72    0.55    0.56
  WS02003060WS02003069 CONDUIT   1133.89     0  01:47      1.95    0.44    0.51
  WS02003059WS02003060 CONDUIT    354.16     0  04:12      0.82    0.23    0.71
  HS02004901HS02004770 CONDUIT     40.99     0  01:33      0.10    0.15    0.57
  HS02004876HS02004881 CONDUIT    157.89     0  01:36      1.33    1.68    0.17
  HS02004870HS02004876 CONDUIT    127.62     0  01:36      0.90    0.08    0.20
  HS02004842HS02004848 CONDUIT     18.52     0  01:52      0.08    0.01    0.35
  HS02004837HS02004842 CONDUIT     18.98     0  01:52      0.42    0.01    0.36
  HS02004830HS02004837 CONDUIT     74.30     0  01:37      0.68    0.07    0.16
  HS02004824HS02004830 CONDUIT     75.05     0  01:38      0.62    0.10    0.21
  HS02004817HS02004824 CONDUIT    149.41     0  01:41      0.35    0.07    0.62
  HS02004770HS02004777 CONDUIT    211.15     0  01:32      0.52    0.39    0.58
  HS02004799HS02004480 CONDUIT    525.39     0  01:34      1.14    0.66    0.66
  HS02004792HS02004799 CONDUIT    478.55     0  01:33      1.27    0.29    0.54
  HS02004788HS02004792 CONDUIT    277.01     0  01:34      1.34    0.18    0.30
  HS02004785HS02004788 CONDUIT    210.89     0  01:34      0.96    1.59    0.31
  HS02004777HS02004785 CONDUIT    210.80     0  01:33      0.62    0.26    0.49
  HS02004480HS02004478 CONDUIT    623.58     0  01:34      1.66    2.63    0.54
  HS02004479HS02004480 CONDUIT     98.63     0  01:35      0.34    0.10    0.63
  HS02004862HS02004870 CONDUIT     96.84     0  01:37      0.86    0.10    0.16
  HS02004848HS02004852 CONDUIT     45.40     0  01:37      0.56    0.05    0.12
  HS02004856HS02004862 CONDUIT     68.36     0  01:37      0.64    0.07    0.15
  HS02004852HS02004856 CONDUIT     45.49     0  01:38      0.37    0.05    0.18
  HS02004802HS02004478 CONDUIT    205.86     0  01:40      0.56    0.18    0.54
  HS02004478WS02006287 CONDUIT    820.99     0  01:36      2.26    0.23    0.40
  HS02004817HS02004807 CONDUIT    150.28     0  01:40      0.27    0.09    0.79
  HS02004807HS02004802 CONDUIT    204.73     0  01:39      0.50    0.39    0.59
  YS02001759YS02001757 CONDUIT    891.16     0  01:45      1.13    0.63    1.00
  YS02001762YS02001759 CONDUIT    401.39     0  01:41      0.51    0.46    1.00
  YS02001765YS02001762 CONDUIT    401.48     0  01:41      0.51    0.38    1.00
  YS02001770YS02001767 CONDUIT    400.95     0  01:41      0.51    1.59    1.00
  YS02001774YS02001770 CONDUIT    851.17     0  02:59      1.08    0.54    1.00
  YS02001779YS02001774 CONDUIT    851.17     0  02:59      1.08    0.43    1.00
  YS02001649YS02001757 CONDUIT    919.68     0  01:43      1.17    0.56    1.00
  YS02001767YS02001765 CONDUIT    401.58     0  01:41      0.51    0.51    1.00
  YS02006561YS02001783 CONDUIT    973.16     0  02:59      2.14    0.50    1.00
  YS02001783YS02001784 CONDUIT    973.02     0  02:59      1.94    1.34    1.00
  YS02001784YS02001785 CONDUIT    974.13     0  02:59      1.94    2.27    1.00
  YS02001788YS02001790 CONDUIT    974.46     0  02:59      2.28    0.72    1.00
  YS02001790YS02001791 CONDUIT    974.30     0  02:59      2.63    1.06    1.00
  YS02001791YS02001793 CONDUIT    974.59     0  02:59      4.77    0.42    1.00
  YS02001910YS02001907 CONDUIT    868.23     0  03:01      1.11    0.49    1.00
  YS02001786YS02001788 CONDUIT    974.18     0  02:59      2.20    1.88    1.00
  YS02001915YS02001910 CONDUIT    868.08     0  03:01      1.11    0.43    1.00
  YS02001918YS02001915 CONDUIT    393.11     0  01:38      0.55    0.22    1.00
  YS02001923YS02001920 CONDUIT    389.85     0  01:38      0.88    0.17    1.00
  YS02001926YS02001923 CONDUIT    351.01     0  01:37      0.95    0.50    1.00
  YS02001929YS02001926 CONDUIT    330.40     0  03:01      1.03    0.16    1.00
  YS02001920YS02001918 CONDUIT    392.93     0  01:38      0.84    0.38    1.00
  YS02001629YS02163301 CONDUIT    292.13     0  01:30      0.37    0.36    1.00
  YS02001619YS02001622 CONDUIT    541.64     0  03:01      0.90    0.80    1.00
  YS02001622YS02001625 CONDUIT    541.79     0  03:01      0.69    0.29    1.00
  YS02001625YS02001629 CONDUIT    301.88     0  01:30      0.44    0.14    1.00
  YS02163301YS02001633 CONDUIT    312.08     0  01:30      0.40    0.29    1.00
  YS02163601YS02164001 CONDUIT    470.96     0  01:32      0.60    0.42    1.00
  YS02164001YS02001641 CONDUIT    473.26     0  01:32      0.60    0.65    1.00
  YS02001641YS02001644 CONDUIT    475.68     0  01:32      0.61    1.54    1.00
  YS02001647YS02001649 CONDUIT    846.70     0  02:56      1.08    0.45    1.00
  YS02006553YS02006556 CONDUIT    699.91     0  03:50      0.89    0.60    1.00
  YS02006556YS02006558 CONDUIT    700.44     0  03:50      0.89    0.55    1.00
  YSB6556YSB1171       CONDUIT     54.78     0  01:36      0.16    0.06    0.86
  YS02001907YS02006553 CONDUIT    699.70     0  03:50      0.78    0.82    1.00
  YS02006558YS02006561 CONDUIT    973.14     0  02:59      3.44    2.15    1.00
  YS02001633YS02163601 CONDUIT    470.17     0  01:32      0.60    0.49    1.00
  YS02001644YS02001647 CONDUIT    846.70     0  02:56      1.08    0.50    1.00
  YS02001745YS02001748 CONDUIT    635.77     0  03:01      1.90    0.24    1.00
  YS02001748YS02001751 CONDUIT    636.02     0  03:01      1.44    0.32    1.00
  YS02001751YS02001754 CONDUIT    636.23     0  03:01      1.17    0.31    1.00
  YS02001754YS02001757 CONDUIT    636.59     0  03:01      0.81    0.26    1.00
  YS02001882YS02001884 CONDUIT     78.32     0  01:34      0.18    0.09    1.00
  YS02001884YS02001887 CONDUIT     80.13     0  01:34      0.14    0.11    1.00
  YS02001890YS02001895 CONDUIT    541.96     0  01:36      0.69    0.25    1.00
  YS02001895YS02001898 CONDUIT    542.10     0  01:36      0.69    0.94    1.00
  YS02001898YS02001901 CONDUIT    542.20     0  01:36      0.69    0.35    1.00
  YS02001901YS02001904 CONDUIT    542.13     0  01:36      0.69    0.84    1.00
  YS02001904YS02001907 CONDUIT    541.29     0  01:36      0.69    0.19    1.00
  YS02001887YS02001890 CONDUIT    787.94     0  03:01      1.00    1.35    1.00
  YS02001652YS02001649 CONDUIT    607.78     0  03:01      0.77    0.30    1.00
  YS02001655YS02001652 CONDUIT    607.74     0  03:01      1.26    0.30    1.00
  YS02001658YS02001655 CONDUIT    607.49     0  03:01      1.67    0.26    1.00
  YS02001661YS02001658 CONDUIT    607.37     0  03:01      2.02    0.24    1.00
  YS02001664YS02001661 CONDUIT    801.62     0  01:47      1.90    0.25    0.82
  YSB1154YSB6556       CONDUIT     54.36     0  01:35      0.17    0.10    0.79
  YSB1174YSB1171       CONDUIT     45.31     0  01:31      0.13    0.07    0.90
  YSB1171HS02004479    CONDUIT     98.35     0  01:34      0.54    0.07    0.73
  HS02004881HS02006253 CONDUIT    174.51     0  01:36      2.55    0.03    0.26
  YS02001793JiankangQianchi CONDUIT    974.90     0  02:59     11.68    0.08    1.00
  YS02001757CaochengTiaoxuchi CONDUIT   2167.16     0  01:45      3.80    0.95    1.00
  WSF200WS02003060     CONDUIT    844.35     0  01:41      2.01    0.19    0.41
  1                    CONDUIT   1136.28     0  01:48      3.44    0.40    0.44
  2                    CONDUIT    134.13     0  03:20      5.26    0.32    0.39
  3                    CONDUIT    480.46     0  04:40      9.72    0.77    0.66
  4                    CONDUIT      0.00     0  00:00      0.00    0.00    0.00
  CC-Pump-1            PUMP       200.00     0  04:30              1.00
  CC-Pump-2            PUMP       200.00     0  03:10              1.00
  JK-Pump-1            PUMP       300.00     0  04:00              1.00
  JK-Pump-2            PUMP       300.00     0  04:30              1.00
  XR-Pump-1            PUMP        95.00     0  00:00              1.00
  XR-Pump-2            PUMP        95.00     0  00:00              1.00
  XR-Pump-3            PUMP        95.00     0  00:00              1.00
  XR-Pump-4            PUMP        95.00     0  04:00              1.00
  
  
  ***************************
  Flow Classification Summary
  ***************************
  
  -------------------------------------------------------------------------------------
                      Adjusted    ---------- Fraction of Time in Flow Class ---------- 
                       /Actual         Up    Down  Sub   Sup   Up    Down  Norm  Inlet 
  Conduit               Length    Dry  Dry   Dry   Crit  Crit  Crit  Crit  Ltd   Ctrl  
  -------------------------------------------------------------------------------------
  WS02003066WSF200        1.00   0.05  0.00  0.00  0.00  0.95  0.00  0.00  0.55  0.00
  WS02006287WS02006284    1.00   0.02  0.01  0.00  0.63  0.34  0.00  0.00  0.61  0.00
  WS02006284WS02006280    1.00   0.02  0.00  0.00  0.00  0.00  0.00  0.98  0.00  0.00
  WS02006280WS02006229    1.00   0.02  0.00  0.00  0.00  0.01  0.00  0.96  0.01  0.00
  WS02006229WS02006228    1.00   0.00  0.00  0.00  1.00  0.00  0.00  0.00  0.00  0.00
  WS02006256WS02006235    1.00   0.04  0.00  0.00  0.96  0.00  0.00  0.00  0.00  0.00
  WS02006253WS02006251    1.00   0.01  0.01  0.00  0.98  0.00  0.00  0.00  0.00  0.00
  WS02006252WS02006251    1.00   0.04  0.00  0.00  0.00  0.00  0.96  0.00  0.00  0.00
  WS02006251WS02006249    1.00   0.00  0.00  0.00  1.00  0.00  0.00  0.00  0.14  0.00
  WS02006249WS02006248    1.00   0.00  0.00  0.00  0.95  0.00  0.05  0.00  0.00  0.00
  WS02006248WS02006247    1.00   0.00  0.00  0.00  0.99  0.00  0.00  0.01  0.02  0.00
  WS02006247WS02006245    1.00   0.00  0.00  0.00  0.98  0.00  0.00  0.02  0.00  0.00
  WS02006245WS02006243    1.00   0.01  0.00  0.00  0.97  0.00  0.00  0.03  0.00  0.00
  WS02006243WS02006242    1.00   0.01  0.00  0.00  0.97  0.00  0.00  0.03  0.00  0.00
  WS02006242WS02006240    1.00   0.01  0.02  0.00  0.96  0.00  0.01  0.00  0.00  0.00
  WS02006240WS02006239    1.00   0.03  0.00  0.00  0.96  0.00  0.00  0.01  0.00  0.00
  WS02006239WS02006238    1.00   0.03  0.00  0.00  0.96  0.00  0.00  0.01  0.00  0.00
  WS02006238WS02006235    1.00   0.03  0.00  0.00  0.97  0.00  0.00  0.00  0.00  0.00
  WS02006235WS02006234    1.00   0.04  0.00  0.00  0.96  0.00  0.00  0.00  0.00  0.00
  WS02006234WS02006232    1.00   0.03  0.00  0.00  0.97  0.00  0.00  0.00  0.00  0.00
  WS02006232WS02006231    1.00   0.03  0.00  0.00  0.97  0.00  0.00  0.00  0.00  0.00
  WS02006231WS02006230    1.00   0.03  0.00  0.00  0.65  0.00  0.32  0.00  0.00  0.00
  WS02006230WS02006229    1.00   0.00  0.00  0.00  0.99  0.00  0.00  0.01  0.00  0.00
  WS02006228WS02006109    1.00   0.00  0.00  0.00  1.00  0.00  0.00  0.00  0.00  0.00
  WS02006116WS02004401    1.00   0.02  0.00  0.00  0.98  0.00  0.00  0.00  0.00  0.00
  WS02006115WS02006116    1.00   0.02  0.00  0.00  0.97  0.00  0.00  0.02  0.00  0.00
  WS02006113WS02006111    1.00   0.01  0.00  0.00  0.05  0.93  0.00  0.00  0.11  0.00
  WS02006112WS02006115    1.00   0.01  0.01  0.00  0.98  0.00  0.00  0.00  0.00  0.00
  WS02006111WS02006112    1.00   0.01  0.00  0.00  0.99  0.00  0.00  0.00  0.79  0.00
  WS02006110WS02006113    1.00   0.00  0.01  0.00  0.99  0.00  0.00  0.00  0.00  0.00
  WS02006109WS02006110    1.00   0.00  0.00  0.00  1.00  0.00  0.00  0.00  0.00  0.00
  WS02004411WS02004412    1.00   0.04  0.00  0.00  0.96  0.00  0.00  0.00  0.00  0.00
  WS02004401WS02004402    1.00   0.02  0.00  0.00  0.98  0.00  0.00  0.00  0.03  0.00
  WS02004413WS02003067    1.00   0.04  0.00  0.00  0.00  0.00  0.95  0.00  0.00  0.00
  WS02004412WS02004413    1.00   0.04  0.00  0.00  0.96  0.00  0.00  0.00  0.00  0.00
  WS02004410WS02004411    1.00   0.04  0.00  0.00  0.96  0.00  0.00  0.00  0.00  0.00
  WS02004409WS02004410    1.00   0.04  0.00  0.00  0.96  0.00  0.00  0.00  0.00  0.00
  WS02004407WS02004409    1.00   0.04  0.00  0.00  0.95  0.01  0.00  0.00  0.80  0.00
  WS02004406WS02004407    1.00   0.00  0.04  0.00  0.96  0.00  0.00  0.00  0.00  0.00
  WS02004405WS02004406    1.00   0.00  0.00  0.00  1.00  0.00  0.00  0.00  0.04  0.00
  WS02004404WS02004405    1.00   0.00  0.00  0.00  1.00  0.00  0.00  0.00  0.00  0.00
  WS02004403WS02004404    1.00   0.00  0.02  0.00  0.98  0.00  0.00  0.00  0.04  0.00
  WS02004402WS02004403    1.00   0.02  0.00  0.00  0.98  0.00  0.00  0.00  0.00  0.00
  WS02004139WS02001211    1.00   0.00  0.00  0.00  1.00  0.00  0.00  0.00  0.00  0.00
  WS02004138WS02004139    1.00   0.00  0.00  0.00  1.00  0.00  0.00  0.00  1.00  0.00
  WS02003067WS02003066    1.00   0.05  0.00  0.00  0.95  0.00  0.00  0.00  0.00  0.00
  WS02001213WS02003059    1.00   0.00  0.00  0.00  1.00  0.00  0.00  0.00  0.00  0.00
  WS02001212WS02001213    1.00   0.00  0.00  0.00  0.92  0.00  0.08  0.00  0.00  0.00
  WS02001211WS02001212    1.00   0.00  0.00  0.00  1.00  0.00  0.00  0.00  0.00  0.00
  WS02003072WS02003073    1.00   0.00  0.00  0.00  0.00  0.00  0.00  1.00  0.00  0.00
  WS02003069WS02003072    1.00   0.00  0.00  0.00  1.00  0.00  0.00  0.00  0.18  0.00
  WS02003060WS02003069    1.00   0.00  0.00  0.00  1.00  0.00  0.00  0.00  0.00  0.00
  WS02003059WS02003060    1.00   0.00  0.00  0.00  1.00  0.00  0.00  0.00  0.01  0.00
  HS02004901HS02004770    1.00   0.02  0.00  0.00  0.98  0.00  0.00  0.00  0.00  0.00
  HS02004876HS02004881    1.00   0.00  0.00  0.00  0.81  0.18  0.00  0.00  0.00  0.00
  HS02004870HS02004876    1.00   0.00  0.00  0.00  1.00  0.00  0.00  0.00  0.95  0.00
  HS02004842HS02004848    1.00   0.00  0.02  0.00  0.98  0.00  0.00  0.00  0.54  0.00
  HS02004837HS02004842    1.00   0.00  0.00  0.00  1.00  0.00  0.00  0.00  0.11  0.00
  HS02004830HS02004837    1.00   0.00  0.00  0.00  1.00  0.00  0.00  0.00  0.99  0.00
  HS02004824HS02004830    1.00   0.00  0.00  0.00  1.00  0.00  0.00  0.00  0.03  0.00
  HS02004817HS02004824    1.00   0.00  0.00  0.00  1.00  0.00  0.00  0.00  0.88  0.00
  HS02004770HS02004777    1.00   0.00  0.02  0.00  0.98  0.00  0.00  0.00  0.02  0.00
  HS02004799HS02004480    1.00   0.00  0.01  0.00  0.97  0.00  0.02  0.00  0.00  0.00
  HS02004792HS02004799    1.00   0.00  0.00  0.00  1.00  0.00  0.00  0.00  0.98  0.00
  HS02004788HS02004792    1.00   0.00  0.00  0.00  1.00  0.00  0.00  0.00  0.98  0.00
  HS02004785HS02004788    1.00   0.00  0.00  0.00  1.00  0.00  0.00  0.00  0.00  0.00
  HS02004777HS02004785    1.00   0.00  0.00  0.00  1.00  0.00  0.00  0.00  0.11  0.00
  HS02004480HS02004478    1.00   0.02  0.00  0.00  0.69  0.00  0.00  0.28  0.00  0.00
  HS02004479HS02004480    1.00   0.01  0.00  0.00  0.99  0.00  0.00  0.00  0.11  0.00
  HS02004862HS02004870    1.00   0.00  0.00  0.00  1.00  0.00  0.00  0.00  0.02  0.00
  HS02004848HS02004852    1.00   0.02  0.00  0.00  0.98  0.00  0.00  0.00  0.82  0.00
  HS02004856HS02004862    1.00   0.00  0.03  0.00  0.97  0.00  0.00  0.00  0.84  0.00
  HS02004852HS02004856    1.00   0.02  0.00  0.00  0.98  0.00  0.00  0.00  0.70  0.00
  HS02004802HS02004478    1.00   0.02  0.00  0.00  0.98  0.00  0.00  0.00  0.02  0.00
  HS02004478WS02006287    1.00   0.03  0.00  0.00  0.75  0.22  0.00  0.00  0.58  0.00
  HS02004817HS02004807    1.00   0.00  0.02  0.00  0.98  0.00  0.00  0.00  0.01  0.00
  HS02004807HS02004802    1.00   0.02  0.00  0.00  0.97  0.00  0.00  0.00  0.00  0.00
  YS02001759YS02001757    1.00   0.00  0.00  0.00  1.00  0.00  0.00  0.00  0.15  0.00
  YS02001762YS02001759    1.00   0.00  0.00  0.00  1.00  0.00  0.00  0.00  0.02  0.00
  YS02001765YS02001762    1.00   0.00  0.00  0.00  1.00  0.00  0.00  0.00  0.13  0.00
  YS02001770YS02001767    1.00   0.00  0.00  0.00  1.00  0.00  0.00  0.00  0.00  0.00
  YS02001774YS02001770    1.00   0.00  0.02  0.00  0.98  0.00  0.00  0.00  0.02  0.00
  YS02001779YS02001774    1.00   0.00  0.00  0.00  1.00  0.00  0.00  0.00  0.16  0.00
  YS02001649YS02001757    1.00   0.00  0.00  0.00  1.00  0.00  0.00  0.00  0.15  0.00
  YS02001767YS02001765    1.00   0.00  0.00  0.00  1.00  0.00  0.00  0.00  0.00  0.00
  YS02006561YS02001783    1.00   0.03  0.00  0.00  0.59  0.38  0.00  0.00  0.39  0.00
  YS02001783YS02001784    1.00   0.00  0.03  0.00  0.97  0.00  0.00  0.00  0.00  0.00
  YS02001784YS02001785    1.00   0.00  0.00  0.00  1.00  0.00  0.00  0.00  0.16  0.00
  YS02001788YS02001790    1.00   0.00  0.00  0.00  0.70  0.30  0.00  0.00  0.36  0.00
  YS02001790YS02001791    1.00   0.00  0.00  0.00  0.68  0.32  0.00  0.00  0.23  0.00
  YS02001791YS02001793    1.00   0.00  0.00  0.00  0.71  0.29  0.00  0.00  0.03  0.00
  YS02001910YS02001907    1.00   0.00  0.00  0.00  0.99  0.00  0.00  0.00  0.12  0.00
  YS02001786YS02001788    1.00   0.00  0.00  0.00  0.64  0.36  0.00  0.00  0.00  0.00
  YS02001915YS02001910    1.00   0.00  0.00  0.00  0.99  0.01  0.00  0.00  0.13  0.00
  YS02001918YS02001915    1.00   0.00  0.00  0.00  1.00  0.00  0.00  0.00  0.45  0.00
  YS02001923YS02001920    1.00   0.00  0.00  0.00  1.00  0.00  0.00  0.00  0.64  0.00
  YS02001926YS02001923    1.00   0.00  0.01  0.00  0.32  0.00  0.67  0.00  0.00  0.00
  YS02001929YS02001926    1.00   0.00  0.02  0.00  0.98  0.00  0.00  0.00  0.56  0.00
  YS02001920YS02001918    1.00   0.00  0.00  0.00  1.00  0.00  0.00  0.00  0.00  0.00
  YS02001629YS02163301    1.00   0.03  0.00  0.00  0.97  0.00  0.00  0.00  0.00  0.00
  YS02001619YS02001622    1.00   0.02  0.00  0.00  0.98  0.00  0.00  0.00  0.00  0.00
  YS02001622YS02001625    1.00   0.02  0.00  0.00  0.98  0.00  0.00  0.00  0.03  0.00
  YS02001625YS02001629    1.00   0.02  0.01  0.00  0.96  0.00  0.01  0.00  0.00  0.00
  YS02163301YS02001633    1.00   0.00  0.03  0.00  0.97  0.00  0.00  0.00  0.00  0.00
  YS02163601YS02164001    1.00   0.00  0.01  0.00  0.99  0.00  0.00  0.00  0.00  0.00
  YS02164001YS02001641    1.00   0.00  0.01  0.00  0.99  0.00  0.00  0.00  0.06  0.00
  YS02001641YS02001644    1.00   0.00  0.00  0.00  1.00  0.00  0.00  0.00  0.00  0.00
  YS02001647YS02001649    1.00   0.00  0.03  0.00  0.97  0.00  0.00  0.00  0.01  0.00
  YS02006553YS02006556    1.00   0.00  0.00  0.00  1.00  0.00  0.00  0.00  0.03  0.00
  YS02006556YS02006558    1.00   0.00  0.00  0.00  1.00  0.00  0.00  0.00  0.00  0.00
  YSB6556YSB1171          1.00   0.01  0.01  0.00  0.98  0.00  0.00  0.00  0.00  0.00
  YS02001907YS02006553    1.00   0.00  0.00  0.00  1.00  0.00  0.00  0.00  0.00  0.00
  YS02006558YS02006561    1.00   0.03  0.00  0.00  0.36  0.61  0.00  0.00  0.34  0.00
  YS02001633YS02163601    1.00   0.00  0.00  0.00  1.00  0.00  0.00  0.00  0.15  0.00
  YS02001644YS02001647    1.00   0.00  0.03  0.00  0.97  0.00  0.00  0.00  0.00  0.00
  YS02001745YS02001748    1.00   0.00  0.00  0.00  0.96  0.00  0.00  0.04  0.00  0.00
  YS02001748YS02001751    1.00   0.00  0.00  0.00  0.99  0.01  0.00  0.00  0.13  0.00
  YS02001751YS02001754    1.00   0.00  0.00  0.00  0.97  0.00  0.00  0.03  0.01  0.00
  YS02001754YS02001757    1.00   0.00  0.00  0.00  1.00  0.00  0.00  0.00  0.16  0.00
  YS02001882YS02001884    1.00   0.03  0.00  0.00  0.97  0.00  0.00  0.00  0.00  0.00
  YS02001884YS02001887    1.00   0.01  0.01  0.00  0.98  0.00  0.00  0.00  0.00  0.00
  YS02001890YS02001895    1.00   0.00  0.03  0.00  0.97  0.00  0.00  0.00  0.00  0.00
  YS02001895YS02001898    1.00   0.03  0.00  0.00  0.97  0.00  0.00  0.00  0.00  0.00
  YS02001898YS02001901    1.00   0.03  0.00  0.00  0.97  0.00  0.00  0.00  0.00  0.00
  YS02001901YS02001904    1.00   0.03  0.00  0.00  0.97  0.00  0.00  0.00  0.00  0.00
  YS02001904YS02001907    1.00   0.00  0.03  0.00  0.97  0.00  0.00  0.00  0.00  0.00
  YS02001887YS02001890    1.00   0.00  0.00  0.00  0.99  0.00  0.00  0.00  0.00  0.00
  YS02001652YS02001649    1.00   0.00  0.00  0.00  1.00  0.00  0.00  0.00  0.15  0.00
  YS02001655YS02001652    1.00   0.00  0.00  0.00  0.97  0.00  0.00  0.03  0.01  0.00
  YS02001658YS02001655    1.00   0.00  0.02  0.00  0.96  0.01  0.00  0.00  0.01  0.00
  YS02001661YS02001658    1.00   0.02  0.00  0.00  0.96  0.02  0.00  0.00  0.00  0.00
  YS02001664YS02001661    1.00   0.02  0.00  0.00  0.96  0.02  0.00  0.00  0.07  0.00
  YSB1154YSB6556          1.00   0.02  0.00  0.00  0.98  0.00  0.00  0.00  0.01  0.00
  YSB1174YSB1171          1.00   0.01  0.01  0.00  0.98  0.00  0.00  0.00  0.00  0.00
  YSB1171HS02004479       1.00   0.01  0.00  0.00  0.99  0.00  0.00  0.00  0.10  0.00
  HS02004881HS02006253    1.00   0.01  0.00  0.00  0.68  0.07  0.00  0.24  0.58  0.00
  YS02001793JiankangQianchi    1.00   0.00  0.00  0.00  0.83  0.17  0.00  0.00  0.25  0.00
  YS02001757CaochengTiaoxuchi    1.00   0.00  0.04  0.00  0.93  0.03  0.00  0.00  0.00  0.00
  WSF200WS02003060        1.00   0.00  0.05  0.00  0.52  0.43  0.00  0.00  0.12  0.00
  1                       1.00   0.00  0.00  0.00  0.00  1.00  0.00  0.00  0.45  0.00
  2                       1.00   0.77  0.00  0.00  0.00  0.23  0.00  0.00  0.07  0.00
  3                       1.00   0.21  0.00  0.00  0.00  0.79  0.00  0.00  0.02  0.00
  4                       1.00   1.00  0.00  0.00  0.00  0.00  0.00  0.00  0.00  0.00
  
  
  *************************
  Conduit Surcharge Summary
  *************************
  
  ----------------------------------------------------------------------------
                                                           Hours        Hours 
                         --------- Hours Full --------   Above Full   Capacity
  Conduit                Both Ends  Upstream  Dnstream   Normal Flow   Limited
  ----------------------------------------------------------------------------
  WS02006229WS02006228        2.60      2.66      2.60      5.13         2.60
  WS02006256WS02006235        6.37      6.37      6.39      3.24         0.01
  WS02006252WS02006251        0.46      0.46      1.00      0.86         0.01
  WS02006251WS02006249        0.01      0.01      0.01      0.52         0.01
  WS02006249WS02006248        0.01      0.01      0.01      3.41         0.01
  WS02006248WS02006247        0.01      0.01      0.01      0.01         0.01
  WS02006247WS02006245        0.01      0.01      0.03      4.24         0.01
  WS02006245WS02006243        0.10      0.10      0.25      0.01         0.01
  WS02006243WS02006242        0.28      0.28      1.19      0.01         0.01
  WS02006242WS02006240        0.75      0.75      1.41      1.05         0.01
  WS02006240WS02006239        0.81      0.81      0.92      0.01         0.01
  WS02006239WS02006238        1.43      1.43      1.52      0.10         0.08
  WS02006238WS02006235        1.46      1.46      1.66      0.01         0.02
  WS02006235WS02006234        0.98      0.98      1.37      5.34         0.13
  WS02006234WS02006232        1.08      1.08      1.97      0.01         0.01
  WS02006232WS02006231        0.98      0.98      1.97      0.01         0.01
  WS02006231WS02006230        0.94      0.94      1.02      5.89         0.14
  WS02006230WS02006229        3.01      4.75      3.02      6.25         2.80
  WS02006228WS02006109        2.63      2.76      2.63      6.09         2.63
  WS02006116WS02004401        0.62      0.62      0.64      0.49         0.48
  WS02006115WS02006116        0.40      0.40      0.41      0.31         0.30
  WS02006112WS02006115        0.37      0.37      1.93      0.01         0.01
  WS02006111WS02006112        0.01      0.01      5.25      0.01         0.01
  WS02006110WS02006113        0.01      0.01      2.70      0.01         0.01
  WS02006109WS02006110        1.47      1.47      2.76      1.48         0.01
  WS02004411WS02004412        0.01      0.01      0.01      0.53         0.01
  WS02004401WS02004402        0.64      0.64      0.72      0.09         0.10
  WS02004410WS02004411        0.01      0.01      0.01      0.46         0.01
  WS02004409WS02004410        0.01      0.01      0.01      0.32         0.01
  WS02004406WS02004407        0.01      0.01      0.95      0.01         0.01
  WS02004405WS02004406        0.95      1.02      0.95      1.89         0.95
  WS02004404WS02004405        1.02      1.10      1.02      6.40         1.02
  WS02004403WS02004404        0.73      0.73      1.10      0.01         0.01
  WS02004402WS02004403        0.72      0.72      0.73      0.59         0.59
  WS02003072WS02003073        0.01      0.01      0.01      5.29         0.01
  HS02004876HS02004881        0.01      0.01      0.01      0.86         0.01
  HS02004817HS02004824        0.01      0.01      0.32      0.01         0.01
  HS02004785HS02004788        0.01      0.01      0.01      0.81         0.01
  HS02004480HS02004478        0.01      0.01      0.01      1.81         0.01
  HS02004817HS02004807        0.01      0.01      0.32      0.01         0.01
  YS02001759YS02001757        6.35      6.35      6.36      0.01         0.01
  YS02001762YS02001759        6.34      6.34      6.35      0.01         0.01
  YS02001765YS02001762        6.34      6.34      6.34      0.01         0.01
  YS02001770YS02001767        6.33      6.33      6.33      1.38         0.54
  YS02001774YS02001770        6.33      6.33      6.34      0.01         0.01
  YS02001779YS02001774        6.31      6.31      6.34      0.01         0.01
  YS02001649YS02001757        6.34      6.34      6.36      0.01         0.01
  YS02001767YS02001765        6.33      6.33      6.34      0.01         0.01
  YS02006561YS02001783        2.46      2.46      2.95      0.01         0.01
  YS02001783YS02001784        2.95      2.95      3.06      2.79         2.76
  YS02001784YS02001785        2.96      3.06      2.96      3.57         2.95
  YS02001788YS02001790        2.94      2.94      4.14      0.01         0.01
  YS02001790YS02001791        4.14      4.14      4.26      2.32         2.32
  YS02001791YS02001793        4.26      4.26      4.66      0.01         0.01
  YS02001910YS02001907        2.75      2.75      3.05      0.01         0.01
  YS02001786YS02001788        2.94      2.96      2.94      3.21         2.94
  YS02001915YS02001910        2.57      2.57      2.75      0.01         0.01
  YS02001918YS02001915        2.35      2.35      2.57      0.01         0.01
  YS02001923YS02001920        2.18      2.18      2.39      0.01         0.01
  YS02001926YS02001923        0.01      0.01      0.01      0.01         0.01
  YS02001929YS02001926        0.01      0.01      0.01      0.01         0.01
  YS02001920YS02001918        2.35      2.35      2.39      0.01         0.01
  YS02001629YS02163301        6.33      6.33      6.33      0.01         0.01
  YS02001619YS02001622        6.30      6.30      6.31      0.01         0.02
  YS02001622YS02001625        6.31      6.31      6.32      0.01         0.01
  YS02001625YS02001629        6.31      6.31      6.32      0.01         0.01
  YS02163301YS02001633        6.33      6.33      6.33      0.01         0.01
  YS02163601YS02164001        6.33      6.33      6.34      0.01         0.01
  YS02164001YS02001641        6.33      6.33      6.34      0.01         0.02
  YS02001641YS02001644        6.34      6.34      6.34      3.05         3.02
  YS02001647YS02001649        6.32      6.32      6.34      0.01         0.01
  YS02006553YS02006556        2.90      2.90      3.09      0.01         0.01
  YS02006556YS02006558        2.96      2.96      3.13      0.01         0.01
  YSB6556YSB1171              0.01      0.01      0.43      0.01         0.01
  YS02001907YS02006553        3.53      3.53      3.72      0.01         0.01
  YS02006558YS02006561        2.65      2.87      2.65      3.40         2.65
  YS02001633YS02163601        6.33      6.33      6.34      0.01         0.01
  YS02001644YS02001647        6.32      6.32      6.34      0.01         0.01
  YS02001745YS02001748        0.79      0.79      6.29      0.01         0.01
  YS02001748YS02001751        6.29      6.29      6.30      0.01         0.01
  YS02001751YS02001754        6.30      6.30      6.31      0.01         0.01
  YS02001754YS02001757        6.31      6.31      6.36      0.01         0.01
  YS02001882YS02001884        2.57      2.57      2.60      0.01         0.01
  YS02001884YS02001887        2.65      2.65      2.67      0.01         0.01
  YS02001890YS02001895        2.55      2.55      2.75      0.01         0.01
  YS02001895YS02001898        2.54      2.54      2.55      0.01         0.01
  YS02001898YS02001901        2.56      2.56      2.65      0.01         0.01
  YS02001901YS02001904        2.63      2.63      2.65      0.01         0.01
  YS02001904YS02001907        2.63      2.63      3.11      0.01         0.01
  YS02001887YS02001890        2.70      2.70      2.72      1.55         0.01
  YS02001652YS02001649        6.32      6.32      6.34      0.01         0.01
  YS02001655YS02001652        6.30      6.30      6.31      0.01         0.01
  YS02001658YS02001655        6.29      6.29      6.30      0.01         0.01
  YS02001661YS02001658        1.29      1.29      6.29      0.01         0.01
  YS02001664YS02001661        0.01      0.01      2.66      0.01         0.01
  YSB1174YSB1171              0.01      0.01      0.16      0.01         0.01
  YS02001793JiankangQianchi        4.61      4.61      6.53      0.01         0.01
  YS02001757CaochengTiaoxuchi        5.91      5.91      6.36      0.01         0.01
  
  
  ***************
  Pumping Summary
  ***************
  
  ---------------------------------------------------------------------------------------------------------
                                                  Min       Avg       Max     Total     Power    % Time Off
                        Percent   Number of      Flow      Flow      Flow    Volume     Usage    Pump Curve
  Pump                 Utilized   Start-Ups       LPS       LPS       LPS  10^6 ltr     Kw-hr    Low   High
  ---------------------------------------------------------------------------------------------------------
  CC-Pump-1               46.81           4      0.00    119.21    200.00     1.560      1.23    0.0    0.0
  CC-Pump-2               49.92           6      0.00    137.06    200.00     1.869      1.46    0.0    2.0
  JK-Pump-1               42.55           4      0.00    211.45    300.00     2.425     17.92    0.0    0.0
  JK-Pump-2               51.06           4      0.00    174.24    300.00     2.432     23.09    0.0    0.0
  XR-Pump-1               78.72           5      0.00     70.74     95.00     1.739     15.32    0.0    0.0
  XR-Pump-2               80.85           6      0.00     64.96     95.00     1.653     14.02    0.0    0.0
  XR-Pump-3               87.22           6      0.00     66.33     95.00     1.853     15.83    0.0    0.0
  XR-Pump-4               53.18           5      0.00     66.85     95.00     0.969      5.31    0.0    0.0
  

  Analysis begun on:  Wed Dec 22 10:09:05 2021
  Analysis ended on:  Wed Dec 22 10:09:08 2021
  Total elapsed time: 00:00:03