
  EPA STORM WATER MANAGEMENT MODEL - VERSION 5.1 (Build 5.3.0.dev0)
  --------------------------------------------------------------

  WARNING 04: minimum elevation drop used for Conduit WS02004404WS02004405
  WARNING 03: negative offset ignored for Link YS02001904YS02001907
  
  *********************************************************
  NOTE: The summary statistics displayed in this report are
  based on results found at every computational time step,  
  not just on results from each reporting time step.
  *********************************************************
  
  ****************
  Analysis Options
  ****************
  Flow Units ............... LPS
  Process Models:
    Rainfall/Runoff ........ YES
    RDII ................... NO
    Snowmelt ............... NO
    Groundwater ............ NO
    Flow Routing ........... YES
    Ponding Allowed ........ NO
    Water Quality .......... NO
  Infiltration Method ...... HORTON
  Flow Routing Method ...... DYNWAVE
  Surcharge Method ......... EXTRAN
  Starting Date ............ 08/28/2015 08:00:00
  Ending Date .............. 08/28/2015 15:50:00
  Antecedent Dry Days ...... 8.0
  Report Time Step ......... 00:01:00
  Wet Time Step ............ 00:01:00
  Dry Time Step ............ 00:01:00
  Routing Time Step ........ 5.00 sec
  Variable Time Step ....... YES
  Maximum Trials ........... 8
  Number of Threads ........ 4
  Head Tolerance ........... 0.001500 m
  
  
  **************************        Volume         Depth
  Runoff Quantity Continuity     hectare-m            mm
  **************************     ---------       -------
  Total Precipitation ......        10.887        23.836
  Evaporation Loss .........         0.000         0.000
  Infiltration Loss ........         2.344         5.132
  Surface Runoff ...........         7.303        15.990
  Final Storage ............         1.241         2.717
  Continuity Error (%) .....        -0.012
  
  
  **************************        Volume        Volume
  Flow Routing Continuity        hectare-m      10^6 ltr
  **************************     ---------     ---------
  Dry Weather Inflow .......         0.616         6.165
  Wet Weather Inflow .......         7.301        73.015
  Groundwater Inflow .......         0.000         0.000
  RDII Inflow ..............         0.000         0.000
  External Inflow ..........         0.102         1.024
  External Outflow .........         2.131        21.309
  Flooding Loss ............         5.384        53.840
  Evaporation Loss .........         0.000         0.000
  Exfiltration Loss ........         0.000         0.000
  Initial Stored Volume ....         0.076         0.761
  Final Stored Volume ......         0.666         6.657
  Continuity Error (%) .....        -1.041
  
  
  *************************
  Highest Continuity Errors
  *************************
  Node HS02004842 (8.73%)
  Node YS02001884 (8.00%)
  Node JK-storage (-5.90%)
  Node HS02004817 (1.69%)
  Node YSB1171 (1.47%)
  
  
  ***************************
  Time-Step Critical Elements
  ***************************
  Link WS02006252WS02006251 (42.30%)
  Link 3 (41.05%)
  Link WS02006280WS02006229 (6.25%)
  Link WS02006238WS02006235 (3.10%)
  Link WS02004404WS02004405 (1.16%)
  
  
  ********************************
  Highest Flow Instability Indexes
  ********************************
  Link WS02006113WS02006111 (35)
  Link WS02006111WS02006112 (28)
  Link YS02163601YS02164001 (27)
  Link YS02163301YS02001633 (26)
  Link YS02001629YS02163301 (26)
  
  
  *************************
  Routing Time Step Summary
  *************************
  Minimum Time Step           :     0.50 sec
  Average Time Step           :     0.83 sec
  Maximum Time Step           :     5.00 sec
  Percent in Steady State     :    -0.00
  Average Iterations per Step :     3.65
  Percent Not Converging      :    11.87
  
  
  ***************************
  Subcatchment Runoff Summary
  ***************************
  
  ------------------------------------------------------------------------------------------------------------------------------
                            Total      Total      Total      Total     Imperv       Perv      Total       Total     Peak  Runoff
                           Precip      Runon       Evap      Infil     Runoff     Runoff     Runoff      Runoff   Runoff   Coeff
  Subcatchment                 mm         mm         mm         mm         mm         mm         mm    10^6 ltr      LPS
  ------------------------------------------------------------------------------------------------------------------------------
  sub0                      23.84       0.00       0.00       1.03      20.90       0.64      21.54        0.02     4.74   0.904
  sub1                      23.84       0.00       0.00       1.74      19.95       0.88      20.83        0.14    30.53   0.874
  sub2                      23.84       0.00       0.00       6.87      14.10       1.95      16.05        0.15    28.29   0.673
  sub3                      23.84       0.00       0.00       7.14      14.06       1.68      15.74        0.35    61.76   0.660
  sub4                      23.84       0.00       0.00       1.87      19.78       0.75      20.54        0.43    72.83   0.862
  sub5                      23.84       0.00       0.00       1.08      20.85       0.59      21.44        0.24    54.28   0.899
  sub7                      23.84       0.00       0.00       1.37      20.44       0.77      21.21        0.07    17.57   0.890
  sub8                      23.84       0.00       0.00       1.38      20.42       0.76      21.19        0.14    32.08   0.889
  sub9                      23.84       0.00       0.00       1.39      20.42       0.76      21.18        0.10    23.95   0.889
  sub10                     23.84       0.00       0.00       1.24      20.63       0.67      21.30        0.23    53.40   0.894
  sub11                     23.84       0.00       0.00       1.22      20.65       0.69      21.34        0.25    59.71   0.895
  sub12                     23.84       0.00       0.00       1.98      19.55       1.11      20.66        0.18    46.17   0.867
  sub14                     23.84       0.00       0.00       1.39      20.42       0.76      21.18        0.20    47.08   0.888
  sub15                     23.84       0.00       0.00       5.16      15.70       1.99      17.70        0.30    64.58   0.742
  sub16                     23.84       0.00       0.00       5.46      15.05       2.40      17.45        0.18    41.69   0.732
  sub17                     23.84       0.00       0.00       5.32      15.27       2.31      17.58        0.15    34.22   0.738
  sub22                     23.84       0.00       0.00       7.63      12.80       2.62      15.42        0.97   202.91   0.647
  sub23                     23.84       0.00       0.00       6.37      14.15       2.45      16.60        0.79   171.10   0.696
  sub60                     23.84       0.00       0.00       2.46      17.68       0.40      18.08        5.48   635.50   0.759
  sub61                     23.84       0.00       0.00       3.48      17.44       0.57      18.00        5.55   687.97   0.755
  sub62                     23.84       0.00       0.00       1.52      19.11       0.39      19.50        5.99   726.55   0.818
  sub63                     23.84       0.00       0.00       6.22      15.11       0.70      15.81        4.78   606.27   0.663
  sub64                     23.84       0.00       0.00       3.15      17.01       0.42      17.43        5.30   611.50   0.731
  sub65                     23.84       0.00       0.00       2.70      17.34       0.40      17.73        5.45   625.37   0.744
  sub66                     23.84       0.00       0.00       6.42      14.44       0.49      14.93        4.58   541.58   0.626
  sub67                     23.84       0.00       0.00       1.46      19.71       0.45      20.16        6.22   787.40   0.846
  sub68                     23.84       0.00       0.00       2.78      18.22       0.56      18.78        5.78   724.10   0.788
  sub69                     23.84       0.00       0.00       2.86      18.50       0.72      19.22        4.49   586.55   0.806
  sub70                     23.84      19.62       0.00       9.95      26.14       3.78      29.92        6.85   801.71   0.689
  sub71                     23.84       0.00       0.00       1.54      18.81       0.36      19.18        4.53   536.91   0.805
  sub72                     23.84       0.00       0.00       1.45      16.32       0.22      16.55        3.37   330.66   0.694
  sub73                     23.84      29.13       0.00       9.95      31.58       5.28      36.86        8.66   884.85   0.696
  sub74                     23.84       0.00       0.00      17.30       5.48       0.57       6.05        2.42   323.16   0.254
  
  
  ******************
  Node Depth Summary
  ******************
  
  ---------------------------------------------------------------------------------
                                 Average  Maximum  Maximum  Time of Max    Reported
                                   Depth    Depth      HGL   Occurrence   Max Depth
  Node                 Type       Meters   Meters   Meters  days hr:min      Meters
  ---------------------------------------------------------------------------------
  WS02001211           JUNCTION     0.65     0.77     5.61     0  05:50        0.77
  WS02001212           JUNCTION     0.38     0.50     5.57     0  01:46        0.50
  WS02001213           JUNCTION     0.62     0.78     5.54     0  01:46        0.78
  WS02003069           JUNCTION     0.46     0.65     5.24     0  01:46        0.65
  WS02003072           JUNCTION     0.52     0.70     5.07     0  01:46        0.70
  WS02003073           JUNCTION     0.32     0.44     4.50     0  01:47        0.44
  WS02003060           JUNCTION     0.41     0.58     5.51     0  01:45        0.58
  WS02003066           JUNCTION     0.25     0.37     5.92     0  01:41        0.37
  WS02003059           JUNCTION     0.69     0.84     5.53     0  01:46        0.84
  WS02003067           JUNCTION     0.61     0.80     6.12     0  01:40        0.80
  WS02004401           JUNCTION     0.72     1.15     7.15     0  01:37        1.15
  WS02004402           JUNCTION     0.75     1.15     7.11     0  01:37        1.15
  WS02004403           JUNCTION     0.77     1.13     7.06     0  01:37        1.13
  WS02004404           JUNCTION     0.84     1.19     7.04     0  01:37        1.18
  WS02004406           JUNCTION     0.84     1.13     6.96     0  01:35        1.12
  WS02004409           JUNCTION     0.54     0.88     6.65     0  01:40        0.88
  WS02004410           JUNCTION     0.56     0.88     6.60     0  01:40        0.88
  WS02004411           JUNCTION     0.57     0.87     6.55     0  01:40        0.87
  WS02004412           JUNCTION     0.58     0.85     6.49     0  01:40        0.85
  WS02004413           JUNCTION     0.74     0.99     6.46     0  01:41        0.99
  WS02004405           JUNCTION     0.84     1.16     7.01     0  01:37        1.16
  WS02006109           JUNCTION     0.82     1.32     7.94     0  01:38        1.30
  WS02006110           JUNCTION     0.80     1.16     7.75     0  01:37        1.16
  WS02006111           JUNCTION     0.25     0.69     7.39     0  01:38        0.69
  WS02006112           JUNCTION     0.91     1.44     7.32     0  01:38        1.43
  WS02006113           JUNCTION     0.37     0.66     7.56     0  01:38        0.66
  WS02006115           JUNCTION     0.62     1.11     7.25     0  01:37        1.11
  WS02006116           JUNCTION     0.70     1.16     7.20     0  01:38        1.16
  WS02006230           JUNCTION     0.80     1.45     8.19     0  01:37        1.44
  WS02006231           JUNCTION     0.54     1.07     8.20     0  01:36        1.07
  WS02006232           JUNCTION     0.67     1.18     8.21     0  01:35        1.15
  WS02006234           JUNCTION     0.59     1.07     8.23     0  01:35        1.03
  WS02006235           JUNCTION     0.62     1.07     8.23     0  01:35        1.02
  WS02006238           JUNCTION     0.64     1.09     8.24     0  01:35        1.05
  WS02006240           JUNCTION     0.54     1.10     8.39     0  01:34        0.90
  WS02006242           JUNCTION     0.59     1.16     8.43     0  01:35        0.93
  WS02006243           JUNCTION     0.47     1.13     8.55     0  01:34        0.80
  WS02006245           JUNCTION     0.44     0.78     8.27     0  01:35        0.73
  WS02006247           JUNCTION     0.46     0.75     8.25     0  01:35        0.71
  WS02006248           JUNCTION     0.40     0.63     8.22     0  01:36        0.62
  WS02006249           JUNCTION     0.43     0.61     8.21     0  01:36        0.61
  WS02006239           JUNCTION     0.60     1.07     8.28     0  01:35        0.99
  WS02006251           JUNCTION     0.41     0.62     8.29     0  06:05        0.62
  WS02006252           JUNCTION     0.33     0.59     8.83     0  06:38        0.58
  WS02006253           JUNCTION     0.44     0.64     8.29     0  06:05        0.64
  WS02006256           JUNCTION     1.04     1.21     8.14     0  04:02        1.21
  WS02004138           JUNCTION     0.14     0.19     7.44     0  05:50        0.19
  WS02004407           JUNCTION     0.24     0.38     6.69     0  01:39        0.38
  WS02006228           JUNCTION     0.83     1.45     8.10     0  01:37        1.44
  WS02006229           JUNCTION     0.81     1.49     8.19     0  01:37        1.49
  WS02006280           JUNCTION     0.08     0.28     8.55     0  01:36        0.28
  WS02006284           JUNCTION     0.39     0.68     9.08     0  01:36        0.68
  WS02006287           JUNCTION     0.11     0.43     9.38     0  01:35        0.43
  WSF200               JUNCTION     0.25     0.41     5.64     0  01:44        0.41
  HS02004901           JUNCTION     0.14     0.40    10.23     0  01:33        0.40
  HS02004881           JUNCTION     0.01     0.06     9.09     0  01:36        0.06
  HS02004876           JUNCTION     0.05     0.18     9.21     0  01:36        0.18
  HS02004870           JUNCTION     0.02     0.11     9.39     0  01:36        0.11
  HS02004862           JUNCTION     0.02     0.12     9.50     0  01:37        0.12
  HS02004856           JUNCTION     0.08     0.16     9.59     0  01:37        0.16
  HS02004852           JUNCTION     0.02     0.09     9.60     0  01:37        0.09
  HS02004848           JUNCTION     0.01     0.08     9.68     0  01:37        0.08
  HS02004842           JUNCTION     0.34     0.41     9.68     0  01:37        0.41
  HS02004837           JUNCTION     0.03     0.10     9.68     0  01:37        0.10
  HS02004830           JUNCTION     0.05     0.13     9.60     0  01:36        0.13
  HS02004824           JUNCTION     0.03     0.17     9.57     0  01:35        0.17
  HS02004817           JUNCTION     0.46     0.74     9.58     0  01:35        0.74
  HS02004807           JUNCTION     0.14     0.41     9.58     0  01:36        0.40
  HS02004802           JUNCTION     0.18     0.44     9.56     0  01:36        0.44
  HS02004799           JUNCTION     0.14     0.51     9.72     0  01:34        0.51
  HS02004792           JUNCTION     0.04     0.24     9.76     0  01:33        0.24
  HS02004788           JUNCTION     0.03     0.17    10.07     0  01:34        0.17
  HS02004785           JUNCTION     0.06     0.27    10.17     0  01:33        0.27
  HS02004777           JUNCTION     0.16     0.41    10.21     0  01:33        0.41
  HS02004770           JUNCTION     0.13     0.39    10.22     0  01:33        0.39
  HS02004480           JUNCTION     0.10     0.42     9.66     0  01:34        0.42
  HS02004479           JUNCTION     0.13     0.46     9.66     0  01:34        0.46
  HS02004478           JUNCTION     0.08     0.32     9.54     0  01:36        0.32
  YS02001745           JUNCTION     0.81     1.04     8.56     0  03:00        1.04
  YS02001748           JUNCTION     1.23     1.76     8.83     0  01:32        1.46
  YS02001751           JUNCTION     1.41     1.65     8.53     0  02:57        1.64
  YS02001754           JUNCTION     1.66     1.89     8.50     0  02:58        1.89
  YS02001762           JUNCTION     1.86     2.08     8.48     0  02:57        2.07
  YS02001765           JUNCTION     1.82     2.03     8.48     0  02:57        2.02
  YS02001767           JUNCTION     1.78     1.98     8.47     0  02:57        1.97
  YS02001770           JUNCTION     1.77     1.95     8.44     0  02:16        1.95
  YS02001774           JUNCTION     1.84     2.00     8.42     0  02:17        1.99
  YS02001779           JUNCTION     1.58     1.68     8.37     0  01:31        1.68
  YS02001882           JUNCTION     0.73     1.76     8.47     0  01:36        1.63
  YS02001884           JUNCTION     0.83     1.83     8.45     0  01:36        1.73
  YS02001759           JUNCTION     1.90     2.12     8.48     0  02:57        2.12
  YS02001887           JUNCTION     0.91     1.86     8.40     0  01:36        1.82
  YS02001890           JUNCTION     0.93     1.81     8.32     0  01:36        1.81
  YS02001898           JUNCTION     0.70     1.60     8.34     0  01:36        1.56
  YS02001901           JUNCTION     0.82     1.70     8.31     0  01:36        1.67
  YS02001904           JUNCTION     0.79     1.65     8.28     0  01:36        1.63
  YS02001907           JUNCTION     1.12     1.96     8.25     0  01:36        1.96
  YS02001910           JUNCTION     0.92     1.98     8.49     0  01:38        1.79
  YS02001915           JUNCTION     0.72     1.94     8.66     0  01:38        1.62
  YS02001918           JUNCTION     0.46     1.81     8.88     0  01:37        1.32
  YS02001619           JUNCTION     1.36     1.61     8.54     0  01:31        1.50
  YS02001629           JUNCTION     1.72     1.85     8.40     0  01:31        1.84
  YS02001641           JUNCTION     1.81     1.95     8.38     0  01:32        1.93
  YS02001644           JUNCTION     1.81     1.92     8.35     0  01:33        1.92
  YS02001652           JUNCTION     1.67     2.03     8.63     0  01:33        1.94
  YS02001655           JUNCTION     1.43     1.98     8.83     0  01:39        1.85
  YS02001920           JUNCTION     0.56     2.10     9.11     0  01:38        1.41
  YS02001923           JUNCTION     0.38     2.03     9.29     0  01:38        1.19
  YS02001926           JUNCTION     0.40     1.90     9.35     0  01:38        1.16
  YS02001929           JUNCTION     0.25     1.78     9.47     0  01:38        1.40
  YS02001658           JUNCTION     1.16     1.90     9.05     0  01:39        1.71
  YS02001661           JUNCTION     0.92     1.84     9.24     0  04:33        1.60
  YS02001664           JUNCTION     0.42     0.66     8.58     0  01:33        0.65
  YS02001622           JUNCTION     1.38     1.62     8.52     0  01:31        1.51
  YS02001633           JUNCTION     1.81     1.97     8.43     0  01:32        1.94
  YS02001649           JUNCTION     1.87     2.05     8.44     0  01:33        2.05
  YS02001757           JUNCTION     2.00     2.21     8.47     0  02:49        2.21
  YS02001895           JUNCTION     0.69     1.59     8.34     0  01:36        1.57
  YS02001625           JUNCTION     1.66     1.78     8.38     0  01:31        1.78
  YS02163301           JUNCTION     1.75     1.96     8.47     0  01:31        1.88
  YS02163601           JUNCTION     1.86     2.02     8.41     0  01:32        1.98
  YS02164001           JUNCTION     1.79     1.95     8.40     0  01:32        1.91
  YS02001647           JUNCTION     1.65     1.81     8.42     0  01:47        1.79
  YSB1154              JUNCTION     0.27     0.61     9.67     0  01:34        0.61
  YSB6556              JUNCTION     0.17     0.50     9.67     0  01:34        0.50
  YSB1174              JUNCTION     0.23     0.56     9.67     0  01:34        0.56
  YSB1171              JUNCTION     0.43     0.76     9.67     0  01:34        0.76
  YS02006553           JUNCTION     1.12     2.09     8.38     0  01:36        1.97
  YS02006561           JUNCTION     0.45     1.78     8.44     0  01:36        1.09
  YS02006556           JUNCTION     1.09     2.18     8.49     0  01:36        1.93
  YS02006558           JUNCTION     1.13     2.27     8.54     0  01:36        1.98
  YS02001783           JUNCTION     0.70     2.11     8.25     0  01:36        1.48
  YS02001784           JUNCTION     0.71     2.01     8.08     0  01:36        1.42
  YS02001786           JUNCTION     0.63     2.23     8.26     0  01:35        1.27
  YS02001788           JUNCTION     0.55     2.28     8.26     0  01:35        1.13
  YS02001790           JUNCTION     0.67     1.96     7.60     0  01:35        1.30
  YS02001791           JUNCTION     0.63     2.25     7.72     0  01:35        1.27
  YS02001793           JUNCTION     0.85     2.07     6.90     0  01:35        1.80
  WS02004139           JUNCTION     0.59     0.71     5.62     0  05:50        0.71
  WSC                  OUTFALL      0.32     0.44     1.11     0  01:47        0.44
  3                    OUTFALL      0.10     0.20     6.20     0  04:02        0.20
  4                    OUTFALL      0.02     0.11     7.11     0  01:36        0.11
  5                    OUTFALL      0.00     0.00     5.00     0  00:00        0.00
  JK-storage           STORAGE      3.10     5.80     6.60     0  01:35        5.80
  CC-storage           STORAGE      1.24     1.48     8.48     0  02:24        1.48
  XR-storage           STORAGE      7.38     7.72     5.72     0  01:48        7.72
  
  
  *******************
  Node Inflow Summary
  *******************
  
  -------------------------------------------------------------------------------------------------
                                  Maximum  Maximum                  Lateral       Total        Flow
                                  Lateral    Total  Time of Max      Inflow      Inflow     Balance
                                   Inflow   Inflow   Occurrence      Volume      Volume       Error
  Node                 Type           LPS      LPS  days hr:min    10^6 ltr    10^6 ltr     Percent
  -------------------------------------------------------------------------------------------------
  WS02001211           JUNCTION      7.35   381.17     0  05:50       0.207        6.78       0.528
  WS02001212           JUNCTION      0.00   376.93     0  05:51           0        6.75       0.310
  WS02001213           JUNCTION      0.00   375.62     0  05:51           0        6.73       0.353
  WS02003069           JUNCTION      0.32  1137.90     0  01:46     0.00902        17.1       0.178
  WS02003072           JUNCTION      0.00  1137.88     0  01:46           0        17.1       0.218
  WS02003073           JUNCTION      1.82  1139.78     0  01:47      0.0514        17.1       0.248
  WS02003060           JUNCTION     16.53  1137.53     0  01:45       0.466        17.1       0.167
  WS02003066           JUNCTION      0.00   845.00     0  01:41           0          10       0.043
  WS02003059           JUNCTION      0.00   375.25     0  05:51           0        6.71       0.556
  WS02003067           JUNCTION      0.00   844.83     0  01:41           0          10       0.090
  WS02004401           JUNCTION      0.00   849.03     0  01:38           0        10.3       0.192
  WS02004402           JUNCTION      0.00   849.13     0  01:38           0        10.2       0.183
  WS02004403           JUNCTION      0.00   849.17     0  01:38           0        10.2       0.168
  WS02004404           JUNCTION      0.16   849.58     0  01:39     0.00457        10.2       0.128
  WS02004406           JUNCTION      0.00   849.31     0  01:39           0        10.2       0.311
  WS02004409           JUNCTION      0.00   849.06     0  01:39           0        10.1       0.148
  WS02004410           JUNCTION      0.00   845.81     0  01:39           0        10.1       0.170
  WS02004411           JUNCTION      0.00   844.83     0  01:40           0        10.1       0.177
  WS02004412           JUNCTION      0.00   844.62     0  01:40           0        10.1       0.193
  WS02004413           JUNCTION      0.00   844.72     0  01:40           0        10.1       0.289
  WS02004405           JUNCTION      0.04   849.98     0  01:39     0.00107        10.2       0.193
  WS02006109           JUNCTION      1.23   821.89     0  01:37      0.0347        10.2       0.193
  WS02006110           JUNCTION      0.00   821.91     0  01:37           0        10.2       0.184
  WS02006111           JUNCTION      0.00   815.83     0  01:38           0        10.2       0.027
  WS02006112           JUNCTION     34.22   849.00     0  01:38       0.151        10.3       0.242
  WS02006113           JUNCTION      0.00   821.88     0  01:37           0        10.2       0.088
  WS02006115           JUNCTION      0.00   848.98     0  01:38           0        10.3       0.194
  WS02006116           JUNCTION      0.00   849.23     0  01:38           0        10.3       0.159
  WS02006230           JUNCTION     10.28   400.79     0  05:32        0.29        6.22       0.150
  WS02006231           JUNCTION      0.00   391.28     0  05:31           0        5.92       0.152
  WS02006232           JUNCTION      0.00   391.37     0  05:31           0        5.91       0.238
  WS02006234           JUNCTION      0.00   393.04     0  06:01           0         5.9       0.118
  WS02006235           JUNCTION      0.00   394.25     0  05:10           0        6.01       0.114
  WS02006238           JUNCTION      0.00   308.62     0  06:10           0        4.39       0.147
  WS02006240           JUNCTION      0.00   313.61     0  07:01           0        4.38       0.233
  WS02006242           JUNCTION      0.00   322.19     0  07:01           0        4.38       0.304
  WS02006243           JUNCTION      0.00   331.30     0  07:01           0        4.37       0.060
  WS02006245           JUNCTION      0.00   337.71     0  07:01           0        4.38       0.242
  WS02006247           JUNCTION      0.00   343.83     0  07:00           0        4.38       0.157
  WS02006248           JUNCTION      0.00   349.50     0  07:00           0        4.38       0.090
  WS02006249           JUNCTION      0.00   401.12     0  06:08           0        4.73       0.215
  WS02006239           JUNCTION      0.00   308.50     0  06:10           0        4.38       0.201
  WS02006251           JUNCTION      0.08   401.05     0  06:05     0.00217        4.76       0.181
  WS02006252           JUNCTION      0.00   400.00     0  06:00           0        3.91       0.011
  WS02006253           JUNCTION      4.74   178.63     0  01:36      0.0174       0.857       0.457
  WS02006256           JUNCTION      0.00   600.00     0  04:00           0        5.53       0.034
  WS02004138           JUNCTION      0.00   379.98     0  05:50           0        6.61       0.081
  WS02004407           JUNCTION      0.00   849.28     0  01:39           0        10.1       0.065
  WS02006228           JUNCTION      0.00   820.76     0  01:37           0        10.2       0.136
  WS02006229           JUNCTION      0.00   824.35     0  01:36           0        10.3       0.110
  WS02006280           JUNCTION      0.00   821.18     0  01:36           0        4.12       0.002
  WS02006284           JUNCTION      0.10   821.15     0  01:36      0.0027        4.12       0.018
  WS02006287           JUNCTION      0.00   821.00     0  01:36           0        4.12       0.018
  WSF200               JUNCTION      0.00   845.00     0  01:41           0          10       0.040
  HS02004901           JUNCTION     41.69    41.69     0  01:31       0.183       0.183       0.971
  HS02004881           JUNCTION     17.57   174.51     0  01:36      0.0714       0.818       0.041
  HS02004876           JUNCTION     30.53   157.86     0  01:36       0.139       0.747       0.075
  HS02004870           JUNCTION     32.08   127.65     0  01:36       0.135       0.609       0.018
  HS02004862           JUNCTION     28.49    96.84     0  01:37       0.155       0.474       0.037
  HS02004856           JUNCTION     23.95    68.40     0  01:36       0.102        0.32       0.455
  HS02004852           JUNCTION      0.00    45.40     0  01:37           0       0.218       0.028
  HS02004848           JUNCTION     61.76    61.76     0  01:40       0.354       0.354       0.014
  HS02004842           JUNCTION      0.00    18.52     0  01:52           0       0.149       9.567
  HS02004837           JUNCTION     59.75    74.34     0  01:37       0.414        0.55       0.147
  HS02004830           JUNCTION      0.15    74.45     0  01:37     0.00423        0.54       0.229
  HS02004824           JUNCTION     72.88   147.16     0  01:41        0.43       0.969       0.056
  HS02004817           JUNCTION      0.60   150.11     0  01:41      0.0169       0.985       1.722
  HS02004807           JUNCTION     59.71   204.46     0  01:38       0.248        1.22       0.359
  HS02004802           JUNCTION      0.00   204.75     0  01:39           0        1.22       0.328
  HS02004799           JUNCTION     47.08   525.54     0  01:33       0.202         2.5       0.119
  HS02004792           JUNCTION    203.19   478.64     0  01:33       0.982         2.3       0.017
  HS02004788           JUNCTION     66.25   277.12     0  01:34       0.351        1.32       0.029
  HS02004785           JUNCTION      0.15   210.95     0  01:33     0.00423       0.971       0.053
  HS02004777           JUNCTION      0.03   211.17     0  01:32    0.000846       0.971       0.540
  HS02004770           JUNCTION    171.10   212.06     0  01:32       0.791       0.973       0.317
  HS02004480           JUNCTION      0.00   623.62     0  01:34           0        2.92       0.035
  HS02004479           JUNCTION      0.00    98.35     0  01:34           0       0.432       0.171
  HS02004478           JUNCTION      0.00   820.99     0  01:35           0        4.12       0.008
  YS02001745           JUNCTION    635.50   635.50     0  03:01        5.48        5.48       0.216
  YS02001748           JUNCTION      0.04   635.93     0  03:01     0.00127        5.47       0.412
  YS02001751           JUNCTION      0.01   636.12     0  03:01     0.00031        5.45       0.445
  YS02001754           JUNCTION      0.26   636.55     0  03:01     0.00733        5.44       0.447
  YS02001762           JUNCTION      0.00   401.91     0  01:41           0        3.18       0.667
  YS02001765           JUNCTION      0.00   402.06     0  01:41           0        3.17       0.771
  YS02001767           JUNCTION      0.54   402.02     0  01:41      0.0151         3.2       1.129
  YS02001770           JUNCTION    726.70  1084.96     0  03:01           6        7.84       0.401
  YS02001774           JUNCTION      0.00   851.27     0  02:58           0        6.12       0.409
  YS02001779           JUNCTION      0.01   851.24     0  02:58    0.000141         6.1       0.255
  YS02001882           JUNCTION      0.00    49.21     0  01:34           0      0.0416       6.565
  YS02001884           JUNCTION      0.00    63.41     0  01:32           0      0.0803       8.690
  YS02001759           JUNCTION    688.01   889.50     0  01:45        5.55        6.86       0.332
  YS02001887           JUNCTION    787.85   787.85     0  03:01        6.23        6.27       0.140
  YS02001890           JUNCTION      0.00   787.91     0  03:01           0        6.22       0.157
  YS02001898           JUNCTION      0.00   559.08     0  01:37           0        5.25       0.048
  YS02001901           JUNCTION      0.00   560.30     0  01:37           0        5.24       0.146
  YS02001904           JUNCTION      0.00   560.58     0  01:37           0        5.24       0.131
  YS02001907           JUNCTION      0.00  1384.67     0  03:01           0        13.2       0.187
  YS02001910           JUNCTION      0.00   868.17     0  03:01           0        7.98       0.146
  YS02001915           JUNCTION    536.93   868.12     0  03:01        4.53        8.03       0.084
  YS02001918           JUNCTION      0.00   391.88     0  01:38           0        3.54       0.054
  YS02001619           JUNCTION    541.58   541.58     0  03:01        4.58        4.58       0.264
  YS02001629           JUNCTION      0.00   371.78     0  01:31           0        1.87       1.500
  YS02001641           JUNCTION      0.00   467.72     0  01:32           0        5.95       0.354
  YS02001644           JUNCTION    611.54  1882.04     0  03:01         5.3          18       0.146
  YS02001652           JUNCTION      0.00   607.68     0  03:01           0        4.73       0.479
  YS02001655           JUNCTION      0.15   607.60     0  03:01     0.00434        4.76       0.535
  YS02001920           JUNCTION      2.87   391.27     0  01:38      0.0809        3.52       0.096
  YS02001923           JUNCTION      0.04   369.35     0  01:37     0.00106        3.42       0.039
  YS02001926           JUNCTION      0.05   330.50     0  03:01     0.00147        3.39       0.105
  YS02001929           JUNCTION    330.66   363.96     0  01:37        3.37        3.37       0.011
  YS02001658           JUNCTION      0.00   607.32     0  03:01           0        4.78       0.472
  YS02001661           JUNCTION      0.00   800.67     0  01:47           0        5.38       0.084
  YS02001664           JUNCTION    606.27   606.27     0  03:01        4.78        5.38       0.109
  YS02001622           JUNCTION      0.00   541.58     0  03:01           0        4.57       0.697
  YS02001633           JUNCTION    625.57   625.57     0  03:01        5.46        6.64       0.482
  YS02001649           JUNCTION      0.00  1415.56     0  03:01           0        10.7       0.346
  YS02001757           JUNCTION      0.00  2167.43     0  01:45           0        12.7       0.720
  YS02001895           JUNCTION      0.00   558.24     0  01:37           0        5.24       0.124
  YS02001625           JUNCTION      0.00   743.76     0  03:01           0        5.19       0.776
  YS02163301           JUNCTION      0.00   307.31     0  01:30           0        1.87       1.296
  YS02163601           JUNCTION      0.11   466.02     0  01:32      0.0031        5.95       0.505
  YS02164001           JUNCTION      0.00   466.78     0  01:32           0        5.94       0.338
  YS02001647           JUNCTION      0.00   846.70     0  03:10           0        8.09       0.351
  YSB1154              JUNCTION     54.28    54.28     0  01:34       0.243       0.243       0.594
  YSB6556              JUNCTION      0.00    54.36     0  01:35           0       0.244       0.519
  YSB1174              JUNCTION     46.17    46.17     0  01:30       0.181       0.181       0.711
  YSB1171              JUNCTION      0.00    98.47     0  01:34           0       0.431       1.495
  YS02006553           JUNCTION      0.00   699.77     0  03:50           0        7.63       0.211
  YS02006561           JUNCTION      0.00  1029.88     0  01:35           0        13.4       0.006
  YS02006556           JUNCTION      0.00   699.81     0  03:50           0        7.64       0.154
  YS02006558           JUNCTION    724.98  1029.15     0  01:35         5.8        13.4       0.040
  YS02001783           JUNCTION      0.00  1012.28     0  01:35           0        13.4       0.020
  YS02001784           JUNCTION      1.06  1013.46     0  01:35      0.0299        13.4       0.034
  YS02001786           JUNCTION      0.06  1013.82     0  01:35     0.00159        13.4       0.030
  YS02001788           JUNCTION      0.07   974.01     0  03:00       0.002        13.4       0.016
  YS02001790           JUNCTION      0.15   974.16     0  03:01     0.00437        13.4       0.023
  YS02001791           JUNCTION      0.00   974.16     0  03:01           0        13.4       0.010
  YS02001793           JUNCTION      0.00   974.17     0  02:57           0        13.4       0.003
  WS02004139           JUNCTION      0.32   379.53     0  05:50     0.00905        6.62       0.592
  WSC                  OUTFALL       0.00  1139.94     0  01:47           0        17.1       0.000
  3                    OUTFALL       0.00   505.35     0  04:02           0         3.9       0.000
  4                    OUTFALL       0.00   124.02     0  01:36           0        0.34       0.000
  5                    OUTFALL       0.00     0.00     0  00:00           0           0       0.000 ltr
  JK-storage           STORAGE       0.00  1022.56     0  01:34           0        13.5      -5.569
  CC-storage           STORAGE       0.00  2168.66     0  01:45           0         7.8       0.835
  XR-storage           STORAGE    1408.02  1408.02     0  03:01        16.7        17.3       0.000
  
  
  **********************
  Node Surcharge Summary
  **********************
  
  Surcharging occurs when water rises above the top of the highest conduit.
  ---------------------------------------------------------------------
                                               Max. Height   Min. Depth
                                   Hours       Above Crown    Below Rim
  Node                 Type      Surcharged         Meters       Meters
  ---------------------------------------------------------------------
  WS02004401           JUNCTION        0.59          0.149        1.511
  WS02004402           JUNCTION        0.62          0.148        1.592
  WS02004403           JUNCTION        0.64          0.134        1.896
  WS02004404           JUNCTION        1.02          0.191        2.589
  WS02004406           JUNCTION        0.89          0.126        2.324
  WS02004405           JUNCTION        0.96          0.164        2.636
  WS02006109           JUNCTION        3.07          0.500        1.320
  WS02006110           JUNCTION        1.34          0.252        1.598
  WS02006112           JUNCTION        1.76          0.441        1.239
  WS02006115           JUNCTION        0.38          0.102        2.148
  WS02006116           JUNCTION        0.42          0.104        2.186
  WS02006230           JUNCTION        0.84          0.370        1.200
  WS02006231           JUNCTION        0.84          0.364        1.166
  WS02006232           JUNCTION        2.72          0.475        1.005
  WS02006234           JUNCTION        0.75          0.351        0.889
  WS02006235           JUNCTION        1.67          0.358        0.932
  WS02006238           JUNCTION        1.99          0.371        1.059
  WS02006240           JUNCTION        0.50          0.389        1.001
  WS02006242           JUNCTION        1.34          0.429        0.391
  WS02006243           JUNCTION        0.26          0.416        0.354
  WS02006245           JUNCTION        0.04          0.072        0.778
  WS02006247           JUNCTION        0.01          0.036        0.724
  WS02006239           JUNCTION        0.75          0.331        0.959
  WS02006252           JUNCTION        1.74          0.193        0.907
  WS02006228           JUNCTION        2.96          0.619        1.581
  HS02004817           JUNCTION        0.32          0.037        1.703
  YS02001745           JUNCTION        0.84          0.042        1.308
  YS02001748           JUNCTION        6.29          0.675        0.515
  YS02001751           JUNCTION        6.30          0.646        0.554
  YS02001754           JUNCTION        6.31          0.842        0.308
  YS02001762           JUNCTION        6.34          1.083        0.067
  YS02001765           JUNCTION        6.34          1.028        0.072
  YS02001767           JUNCTION        6.33          0.977        0.053
  YS02001770           JUNCTION        6.33          0.920        0.000
  YS02001774           JUNCTION        6.34          1.000        0.050
  YS02001779           JUNCTION        6.31          0.680        0.000
  YS02001882           JUNCTION        2.57          0.757        0.073
  YS02001884           JUNCTION        2.60          0.773        0.097
  YS02001759           JUNCTION        6.35          1.120        0.090
  YS02001887           JUNCTION        2.68          0.811        0.139
  YS02001890           JUNCTION        2.70          0.760        0.000
  YS02001898           JUNCTION        2.53          0.573        0.167
  YS02001901           JUNCTION        2.64          0.703        0.167
  YS02001904           JUNCTION        2.62          0.651        0.199
  YS02001907           JUNCTION        3.03          0.950        0.000
  YS02001910           JUNCTION        2.74          0.985        0.115
  YS02001915           JUNCTION        2.56          0.938        0.062
  YS02001918           JUNCTION        2.34          0.810        0.000
  YS02001619           JUNCTION        6.31          0.610        0.000
  YS02001629           JUNCTION        6.31          0.470        0.000
  YS02001641           JUNCTION        6.34          0.946        0.154
  YS02001644           JUNCTION        6.34          0.920        0.000
  YS02001652           JUNCTION        6.31          1.001        0.129
  YS02001655           JUNCTION        6.30          0.981        0.219
  YS02001920           JUNCTION        2.37          1.100        0.040
  YS02001923           JUNCTION        0.01          0.820        0.000
  YS02001926           JUNCTION        0.01          0.900        0.000
  YS02001929           JUNCTION        0.01          0.780        0.000
  YS02001658           JUNCTION        6.29          0.905        0.395
  YS02001661           JUNCTION        1.29          0.766        0.624
  YS02001622           JUNCTION        6.31          0.620        0.000
  YS02001633           JUNCTION        6.33          0.955        0.105
  YS02001649           JUNCTION        6.34          1.050        0.000
  YS02001757           JUNCTION        6.36          1.210        0.000
  YS02001895           JUNCTION        2.54          0.594        0.156
  YS02001625           JUNCTION        6.32          0.780        0.000
  YS02163301           JUNCTION        6.33          0.958        0.072
  YS02163601           JUNCTION        6.34          1.017        0.063
  YS02164001           JUNCTION        6.33          0.945        0.155
  YS02001647           JUNCTION        6.32          0.809        0.091
  YS02006553           JUNCTION        3.09          1.092        0.098
  YS02006561           JUNCTION        2.45          0.985        0.165
  YS02006556           JUNCTION        2.90          1.143        0.207
  YS02006558           JUNCTION        2.88          1.173        0.227
  YS02001783           JUNCTION        2.94          1.312        0.288
  YS02001784           JUNCTION        2.99          1.212        0.278
  YS02001786           JUNCTION        2.92          1.430        0.000
  YS02001788           JUNCTION        2.89          1.480        0.000
  YS02001790           JUNCTION        3.41          1.157        0.000
  YS02001791           JUNCTION        3.44          1.450        0.470
  YS02001793           JUNCTION        3.51          1.068        1.532
  
  
  *********************
  Node Flooding Summary
  *********************
  
  Flooding refers to all water that overflows a node, whether it ponds or not.
  --------------------------------------------------------------------------
                                                             Total   Maximum
                                 Maximum   Time of Max       Flood    Ponded
                        Hours       Rate    Occurrence      Volume     Depth
  Node                 Flooded       LPS   days hr:min    10^6 ltr    Meters
  --------------------------------------------------------------------------
  YS02001770              0.90    233.73      0  03:01       0.340     0.000
  YS02001779              4.08    851.20      0  02:58       6.079     0.000
  YS02001890              1.66    271.40      0  03:01       0.963     0.000
  YS02001907              2.20   1137.15      0  03:01       5.551     0.000
  YS02001918              0.01     76.33      0  01:38       0.000     0.000
  YS02001619              0.01     26.00      0  01:31       0.000     0.000
  YS02001629              0.01    326.81      0  01:31       0.004     0.000
  YS02001644              6.11   1882.01      0  03:01      16.663     0.000
  YS02001923              0.01    138.64      0  01:38       0.000     0.000
  YS02001926              0.01     70.45      0  01:38       0.000     0.000
  YS02001929              0.01    224.05      0  01:38       0.000     0.000
  YS02001622              0.01     67.26      0  01:31       0.000     0.000
  YS02001649              1.16    568.84      0  03:01       1.580     0.000
  YS02001757              0.30    188.21      0  03:01       0.095     0.000
  YS02001625              2.89    743.74      0  03:01       3.937     0.000
  YS02001786              0.01     38.76      0  01:35       0.000     0.000
  YS02001788              0.01    134.35      0  01:35       0.000     0.000
  YS02001790              0.01    195.23      0  01:35       0.000     0.000
  JK-storage              3.32    974.16      0  03:01       8.839     0.000
  XR-storage              5.85   1122.94      0  03:01       9.788     0.000
  
  
  **********************
  Storage Volume Summary
  **********************
  
  --------------------------------------------------------------------------------------------------
                         Average     Avg  Evap Exfil       Maximum     Max    Time of Max    Maximum
                          Volume    Pcnt  Pcnt  Pcnt        Volume    Pcnt     Occurrence    Outflow
  Storage Unit           1000 m3    Full  Loss  Loss       1000 m3    Full    days hr:min        LPS
  --------------------------------------------------------------------------------------------------
  JK-storage               0.156      53     0     0         0.291     100       0  01:35     600.00
  CC-storage               3.451      22     0     0         4.118      26       0  02:24     400.00
  XR-storage               0.885      96     0     0         0.926     100       0  01:48     379.98
  
  
  ***********************
  Outfall Loading Summary
  ***********************
  
  -----------------------------------------------------------
                         Flow       Avg       Max       Total
                         Freq      Flow      Flow      Volume
  Outfall Node           Pcnt       LPS       LPS    10^6 ltr
  -----------------------------------------------------------
  WSC                  100.00    631.92   1139.94      17.069
  3                     78.60    249.20    505.35       3.900
  4                     34.32     46.22    124.02       0.340
  5                      0.00      0.00      0.00       0.000
  -----------------------------------------------------------
  System                53.23    927.34   1268.32      21.309
  
  
  ********************
  Link Flow Summary
  ********************
  
  -----------------------------------------------------------------------------
                                 Maximum  Time of Max   Maximum    Max/    Max/
                                  |Flow|   Occurrence   |Veloc|    Full    Full
  Link                 Type          LPS  days hr:min     m/sec    Flow   Depth
  -----------------------------------------------------------------------------
  WS02003066WSF200     CONDUIT    845.00     0  01:41      2.98    0.14    0.30
  WS02006287WS02006284 CONDUIT    821.06     0  01:36      2.53    0.38    0.43
  WS02006284WS02006280 CONDUIT    821.18     0  01:36      2.76    0.34    0.40
  WS02006280WS02006229 CONDUIT    821.14     0  01:36      4.48    0.18    0.30
  WS02006229WS02006228 CONDUIT    820.76     0  01:37      1.63    2.72    1.00
  WS02006256WS02006235 CONDUIT    149.98     0  00:55      2.14    1.59    1.00
  WS02006253WS02006251 CONDUIT    192.19     0  01:36      0.81    0.58    0.89
  WS02006252WS02006251 CONDUIT    400.29     0  06:38      3.19    1.47    1.00
  WS02006251WS02006249 CONDUIT    401.12     0  06:08      1.15    1.16    0.87
  WS02006249WS02006248 CONDUIT    349.50     0  07:00      1.15    1.91    0.87
  WS02006248WS02006247 CONDUIT    343.83     0  07:00      1.10    0.75    0.94
  WS02006247WS02006245 CONDUIT    337.71     0  07:01      1.06    2.68    1.00
  WS02006245WS02006243 CONDUIT    331.30     0  07:01      1.07    0.98    1.00
  WS02006243WS02006242 CONDUIT    322.19     0  07:01      0.93    0.69    1.00
  WS02006242WS02006240 CONDUIT    313.61     0  07:01      0.86    1.25    1.00
  WS02006240WS02006239 CONDUIT    308.50     0  06:10      0.85    0.97    1.00
  WS02006239WS02006238 CONDUIT    308.62     0  06:10      0.80    0.99    1.00
  WS02006238WS02006235 CONDUIT    308.60     0  06:10      0.80    0.69    1.00
  WS02006235WS02006234 CONDUIT    393.04     0  06:01      1.03    4.15    1.00
  WS02006234WS02006232 CONDUIT    391.37     0  05:31      1.02    0.79    1.00
  WS02006232WS02006231 CONDUIT    391.28     0  05:31      1.06    0.82    1.00
  WS02006231WS02006230 CONDUIT    390.51     0  05:32      1.35    5.92    1.00
  WS02006230WS02006229 CONDUIT    400.47     0  05:32      1.04    8.91    1.00
  WS02006228WS02006109 CONDUIT    820.66     0  01:37      1.63    3.59    1.00
  WS02006116WS02004401 CONDUIT    849.03     0  01:38      1.08    1.17    1.00
  WS02006115WS02006116 CONDUIT    849.23     0  01:38      1.08    1.09    1.00
  WS02006113WS02006111 CONDUIT    815.83     0  01:38      2.68    0.98    0.84
  WS02006112WS02006115 CONDUIT    848.98     0  01:38      1.08    0.50    1.00
  WS02006111WS02006112 CONDUIT    818.11     0  01:38      1.81    0.39    0.92
  WS02006110WS02006113 CONDUIT    821.88     0  01:37      1.74    0.75    0.92
  WS02006109WS02006110 CONDUIT    821.91     0  01:37      1.64    1.58    1.00
  WS02004411WS02004412 CONDUIT    844.62     0  01:40      1.17    1.20    0.86
  WS02004401WS02004402 CONDUIT    849.13     0  01:38      1.08    1.02    1.00
  WS02004413WS02003067 CONDUIT    844.83     0  01:41      1.43    0.36    0.70
  WS02004412WS02004413 CONDUIT    844.72     0  01:40      1.12    0.57    0.92
  WS02004410WS02004411 CONDUIT    844.83     0  01:40      1.16    1.15    0.87
  WS02004409WS02004410 CONDUIT    845.81     0  01:39      1.16    1.09    0.88
  WS02004407WS02004409 CONDUIT    849.06     0  01:39      1.71    0.30    0.63
  WS02004406WS02004407 CONDUIT    849.28     0  01:39      1.47    0.38    0.69
  WS02004405WS02004406 CONDUIT    849.31     0  01:39      1.08    1.68    1.00
  WS02004404WS02004405 CONDUIT    849.94     0  01:39      1.08    8.33    1.00
  WS02004403WS02004404 CONDUIT    849.42     0  01:39      1.08    0.61    1.00
  WS02004402WS02004403 CONDUIT    849.17     0  01:38      1.08    1.22    1.00
  WS02004139WS02001211 CONDUIT    373.82     0  05:50      0.81    0.47    0.58
  WS02004138WS02004139 CONDUIT    379.21     0  05:50      3.34    0.08    0.43
  WS02003067WS02003066 CONDUIT    845.00     0  01:41      1.56    0.27    0.48
  WS02001213WS02003059 CONDUIT    375.25     0  05:51      0.78    0.62    0.80
  WS02001212WS02001213 CONDUIT    375.62     0  05:51      1.19    0.58    0.48
  WS02001211WS02001212 CONDUIT    376.93     0  05:51      0.73    0.29    0.63
  WS02003072WS02003073 CONDUIT   1137.96     0  01:47      1.85    2.46    0.53
  WS02003069WS02003072 CONDUIT   1137.88     0  01:46      1.73    0.55    0.57
  WS02003060WS02003069 CONDUIT   1137.58     0  01:46      1.95    0.45    0.51
  WS02003059WS02003060 CONDUIT    375.37     0  05:52      0.82    0.25    0.71
  HS02004901HS02004770 CONDUIT     40.99     0  01:33      0.10    0.15    0.57
  HS02004876HS02004881 CONDUIT    157.89     0  01:36      1.33    1.68    0.17
  HS02004870HS02004876 CONDUIT    127.62     0  01:36      0.90    0.08    0.20
  HS02004842HS02004848 CONDUIT     18.52     0  01:52      0.08    0.01    0.35
  HS02004837HS02004842 CONDUIT     18.98     0  01:52      0.42    0.01    0.36
  HS02004830HS02004837 CONDUIT     74.30     0  01:37      0.68    0.07    0.16
  HS02004824HS02004830 CONDUIT     75.01     0  01:38      0.62    0.10    0.21
  HS02004817HS02004824 CONDUIT    149.51     0  01:41      0.35    0.07    0.62
  HS02004770HS02004777 CONDUIT    211.14     0  01:32      0.52    0.39    0.58
  HS02004799HS02004480 CONDUIT    525.39     0  01:34      1.14    0.66    0.66
  HS02004792HS02004799 CONDUIT    478.55     0  01:33      1.27    0.29    0.54
  HS02004788HS02004792 CONDUIT    277.01     0  01:34      1.34    0.18    0.30
  HS02004785HS02004788 CONDUIT    210.89     0  01:34      0.96    1.59    0.31
  HS02004777HS02004785 CONDUIT    210.80     0  01:33      0.62    0.26    0.49
  HS02004480HS02004478 CONDUIT    623.57     0  01:34      1.66    2.63    0.54
  HS02004479HS02004480 CONDUIT     98.65     0  01:35      0.34    0.10    0.63
  HS02004862HS02004870 CONDUIT     96.84     0  01:37      0.86    0.10    0.16
  HS02004848HS02004852 CONDUIT     45.40     0  01:37      0.56    0.05    0.12
  HS02004856HS02004862 CONDUIT     68.36     0  01:37      0.64    0.07    0.15
  HS02004852HS02004856 CONDUIT     45.49     0  01:38      0.37    0.05    0.18
  HS02004802HS02004478 CONDUIT    205.87     0  01:39      0.56    0.18    0.54
  HS02004478WS02006287 CONDUIT    821.00     0  01:36      2.26    0.23    0.40
  HS02004817HS02004807 CONDUIT    150.36     0  01:40      0.27    0.09    0.79
  HS02004807HS02004802 CONDUIT    204.75     0  01:39      0.50    0.39    0.59
  YS02001759YS02001757 CONDUIT    889.42     0  01:45      1.13    0.63    1.00
  YS02001762YS02001759 CONDUIT    402.07     0  01:41      0.51    0.46    1.00
  YS02001765YS02001762 CONDUIT    401.91     0  01:41      0.51    0.38    1.00
  YS02001770YS02001767 CONDUIT    401.49     0  01:41      0.51    1.59    1.00
  YS02001774YS02001770 CONDUIT    851.27     0  02:58      1.08    0.54    1.00
  YS02001779YS02001774 CONDUIT    851.23     0  02:58      1.08    0.43    1.00
  YS02001649YS02001757 CONDUIT    918.19     0  01:43      1.17    0.56    1.00
  YS02001767YS02001765 CONDUIT    402.06     0  01:41      0.51    0.51    1.00
  YS02006561YS02001783 CONDUIT   1012.28     0  01:35      2.26    0.52    1.00
  YS02001783YS02001784 CONDUIT   1012.40     0  01:35      2.01    1.40    1.00
  YS02001784YS02001785 CONDUIT   1013.76     0  01:35      2.05    2.36    1.00
  YS02001788YS02001790 CONDUIT    974.01     0  03:01      2.46    0.72    1.00
  YS02001790YS02001791 CONDUIT    974.16     0  03:01      3.00    1.06    1.00
  YS02001791YS02001793 CONDUIT    974.17     0  02:57      5.87    0.42    1.00
  YS02001910YS02001907 CONDUIT    868.27     0  03:01      1.11    0.49    1.00
  YS02001786YS02001788 CONDUIT    973.94     0  03:00      2.32    1.88    1.00
  YS02001915YS02001910 CONDUIT    868.17     0  03:01      1.11    0.43    1.00
  YS02001918YS02001915 CONDUIT    392.32     0  01:38      0.55    0.22    1.00
  YS02001923YS02001920 CONDUIT    388.40     0  01:38      0.88    0.17    1.00
  YS02001926YS02001923 CONDUIT    333.41     0  03:01      0.95    0.48    1.00
  YS02001929YS02001926 CONDUIT    330.45     0  03:01      1.03    0.16    1.00
  YS02001920YS02001918 CONDUIT    391.88     0  01:38      0.84    0.38    1.00
  YS02001629YS02163301 CONDUIT    292.43     0  01:30      0.37    0.36    1.00
  YS02001619YS02001622 CONDUIT    541.58     0  03:01      0.90    0.80    1.00
  YS02001622YS02001625 CONDUIT    541.71     0  03:01      0.69    0.29    1.00
  YS02001625YS02001629 CONDUIT    303.06     0  01:30      0.44    0.14    1.00
  YS02163301YS02001633 CONDUIT    307.31     0  01:30      0.39    0.29    1.00
  YS02163601YS02164001 CONDUIT    466.78     0  01:32      0.59    0.41    1.00
  YS02164001YS02001641 CONDUIT    467.72     0  01:32      0.60    0.64    1.00
  YS02001641YS02001644 CONDUIT    469.97     0  01:32      0.60    1.52    1.00
  YS02001647YS02001649 CONDUIT    846.70     0  03:10      1.08    0.45    1.00
  YS02006553YS02006556 CONDUIT    699.81     0  03:50      0.89    0.60    1.00
  YS02006556YS02006558 CONDUIT    699.90     0  03:50      0.89    0.55    1.00
  YSB6556YSB1171       CONDUIT     54.78     0  01:36      0.16    0.06    0.86
  YS02001907YS02006553 CONDUIT    699.77     0  03:50      0.78    0.82    1.00
  YS02006558YS02006561 CONDUIT   1029.88     0  01:35      3.74    2.28    1.00
  YS02001633YS02163601 CONDUIT    465.91     0  01:32      0.59    0.49    1.00
  YS02001644YS02001647 CONDUIT    846.70     0  03:10      1.08    0.50    1.00
  YS02001745YS02001748 CONDUIT    635.89     0  03:01      1.90    0.24    1.00
  YS02001748YS02001751 CONDUIT    636.11     0  03:01      1.44    0.32    1.00
  YS02001751YS02001754 CONDUIT    636.29     0  03:01      1.17    0.31    1.00
  YS02001754YS02001757 CONDUIT    636.65     0  03:01      0.81    0.26    1.00
  YS02001882YS02001884 CONDUIT     49.21     0  01:34      0.18    0.06    1.00
  YS02001884YS02001887 CONDUIT     63.41     0  01:32      0.14    0.08    1.00
  YS02001890YS02001895 CONDUIT    558.24     0  01:37      0.71    0.26    1.00
  YS02001895YS02001898 CONDUIT    559.08     0  01:37      0.71    0.97    1.00
  YS02001898YS02001901 CONDUIT    560.30     0  01:37      0.71    0.36    1.00
  YS02001901YS02001904 CONDUIT    560.58     0  01:37      0.71    0.87    1.00
  YS02001904YS02001907 CONDUIT    560.84     0  01:37      0.71    0.20    1.00
  YS02001887YS02001890 CONDUIT    787.91     0  03:01      1.00    1.35    1.00
  YS02001652YS02001649 CONDUIT    607.73     0  03:01      0.77    0.30    1.00
  YS02001655YS02001652 CONDUIT    607.68     0  03:01      1.26    0.30    1.00
  YS02001658YS02001655 CONDUIT    607.45     0  03:01      1.67    0.26    1.00
  YS02001661YS02001658 CONDUIT    607.32     0  03:01      2.02    0.24    1.00
  YS02001664YS02001661 CONDUIT    800.67     0  01:47      1.90    0.25    0.83
  YSB1154YSB6556       CONDUIT     54.36     0  01:35      0.17    0.10    0.79
  YSB1174YSB1171       CONDUIT     45.35     0  01:31      0.13    0.07    0.90
  YSB1171HS02004479    CONDUIT     98.35     0  01:34      0.54    0.07    0.73
  HS02004881HS02006253 CONDUIT    174.51     0  01:36      2.55    0.03    0.23
  YS02001793JiankangQianchi CONDUIT   1022.56     0  01:34     12.85    0.08    1.00
  YS02001757CaochengTiaoxuchi CONDUIT   2168.66     0  01:45      3.80    0.95    1.00
  WSF200WS02003060     CONDUIT    844.43     0  01:41      1.99    0.19    0.41
  1                    CONDUIT   1139.94     0  01:47      3.45    0.40    0.44
  2                    CONDUIT    124.02     0  01:36      5.15    0.30    0.37
  3                    CONDUIT    505.35     0  04:02      9.80    0.81    0.68
  4                    CONDUIT      0.00     0  00:00      0.00    0.00    0.00
  CC-Pump-1            PUMP       200.00     0  04:00              1.00
  CC-Pump-2            PUMP       200.00     0  03:40              1.00
  JK-Pump-1            PUMP       300.00     0  04:00              1.00
  JK-Pump-2            PUMP       300.00     0  04:00              1.00
  XR-Pump-1            PUMP        95.00     0  00:00              1.00
  XR-Pump-2            PUMP        95.00     0  00:00              1.00
  XR-Pump-3            PUMP        95.00     0  00:00              1.00
  XR-Pump-4            PUMP        95.00     0  03:40              1.00
  
  
  ***************************
  Flow Classification Summary
  ***************************
  
  -------------------------------------------------------------------------------------
                      Adjusted    ---------- Fraction of Time in Flow Class ---------- 
                       /Actual         Up    Down  Sub   Sup   Up    Down  Norm  Inlet 
  Conduit               Length    Dry  Dry   Dry   Crit  Crit  Crit  Crit  Ltd   Ctrl  
  -------------------------------------------------------------------------------------
  WS02003066WSF200        1.00   0.06  0.00  0.00  0.00  0.94  0.00  0.00  0.58  0.00
  WS02006287WS02006284    1.00   0.02  0.03  0.00  0.65  0.31  0.00  0.00  0.61  0.00
  WS02006284WS02006280    1.00   0.04  0.00  0.00  0.00  0.00  0.00  0.96  0.00  0.00
  WS02006280WS02006229    1.00   0.04  0.00  0.00  0.00  0.01  0.00  0.95  0.01  0.00
  WS02006229WS02006228    1.00   0.00  0.00  0.00  1.00  0.00  0.00  0.00  0.00  0.00
  WS02006256WS02006235    1.00   0.02  0.00  0.00  0.98  0.00  0.00  0.00  0.00  0.00
  WS02006253WS02006251    1.00   0.01  0.01  0.00  0.97  0.00  0.02  0.00  0.00  0.00
  WS02006252WS02006251    1.00   0.05  0.00  0.00  0.00  0.00  0.95  0.00  0.00  0.00
  WS02006251WS02006249    1.00   0.00  0.00  0.00  1.00  0.00  0.00  0.00  0.14  0.00
  WS02006249WS02006248    1.00   0.00  0.00  0.00  0.94  0.00  0.05  0.00  0.00  0.00
  WS02006248WS02006247    1.00   0.00  0.00  0.00  0.99  0.00  0.00  0.01  0.03  0.00
  WS02006247WS02006245    1.00   0.00  0.00  0.00  0.97  0.00  0.00  0.03  0.00  0.00
  WS02006245WS02006243    1.00   0.01  0.00  0.00  0.97  0.00  0.00  0.02  0.01  0.00
  WS02006243WS02006242    1.00   0.01  0.00  0.00  0.98  0.00  0.00  0.01  0.03  0.00
  WS02006242WS02006240    1.00   0.01  0.01  0.00  0.98  0.00  0.00  0.00  0.00  0.00
  WS02006240WS02006239    1.00   0.02  0.00  0.00  0.98  0.00  0.00  0.00  0.01  0.00
  WS02006239WS02006238    1.00   0.02  0.00  0.00  0.98  0.00  0.00  0.00  0.00  0.00
  WS02006238WS02006235    1.00   0.02  0.00  0.00  0.98  0.00  0.00  0.00  0.00  0.00
  WS02006235WS02006234    1.00   0.02  0.00  0.00  0.98  0.00  0.00  0.00  0.00  0.00
  WS02006234WS02006232    1.00   0.02  0.00  0.00  0.98  0.00  0.00  0.00  0.00  0.00
  WS02006232WS02006231    1.00   0.02  0.00  0.00  0.98  0.00  0.00  0.00  0.00  0.00
  WS02006231WS02006230    1.00   0.02  0.00  0.00  0.76  0.00  0.22  0.00  0.00  0.00
  WS02006230WS02006229    1.00   0.00  0.00  0.00  0.99  0.00  0.00  0.01  0.00  0.00
  WS02006228WS02006109    1.00   0.00  0.00  0.00  1.00  0.00  0.00  0.00  0.00  0.00
  WS02006116WS02004401    1.00   0.02  0.00  0.00  0.98  0.00  0.00  0.00  0.00  0.00
  WS02006115WS02006116    1.00   0.02  0.00  0.00  0.96  0.00  0.00  0.02  0.00  0.00
  WS02006113WS02006111    1.00   0.01  0.00  0.00  0.05  0.94  0.00  0.00  0.11  0.00
  WS02006112WS02006115    1.00   0.01  0.01  0.00  0.98  0.00  0.00  0.00  0.00  0.00
  WS02006111WS02006112    1.00   0.01  0.00  0.00  0.99  0.00  0.00  0.00  0.80  0.00
  WS02006110WS02006113    1.00   0.00  0.01  0.00  0.99  0.00  0.00  0.00  0.00  0.00
  WS02006109WS02006110    1.00   0.00  0.00  0.00  1.00  0.00  0.00  0.00  0.00  0.00
  WS02004411WS02004412    1.00   0.04  0.00  0.00  0.96  0.00  0.00  0.00  0.00  0.00
  WS02004401WS02004402    1.00   0.02  0.00  0.00  0.98  0.00  0.00  0.00  0.00  0.00
  WS02004413WS02003067    1.00   0.04  0.01  0.00  0.00  0.00  0.95  0.00  0.00  0.00
  WS02004412WS02004413    1.00   0.04  0.00  0.00  0.95  0.00  0.00  0.00  0.01  0.00
  WS02004410WS02004411    1.00   0.04  0.00  0.00  0.96  0.00  0.00  0.00  0.00  0.00
  WS02004409WS02004410    1.00   0.04  0.00  0.00  0.96  0.00  0.00  0.00  0.00  0.00
  WS02004407WS02004409    1.00   0.04  0.00  0.00  0.96  0.00  0.00  0.00  0.84  0.00
  WS02004406WS02004407    1.00   0.00  0.04  0.00  0.96  0.00  0.00  0.00  0.00  0.00
  WS02004405WS02004406    1.00   0.00  0.00  0.00  1.00  0.00  0.00  0.00  0.04  0.00
  WS02004404WS02004405    1.00   0.00  0.00  0.00  1.00  0.00  0.00  0.00  0.00  0.00
  WS02004403WS02004404    1.00   0.00  0.02  0.00  0.98  0.00  0.00  0.00  0.02  0.00
  WS02004402WS02004403    1.00   0.02  0.00  0.00  0.98  0.00  0.00  0.00  0.00  0.00
  WS02004139WS02001211    1.00   0.00  0.00  0.00  1.00  0.00  0.00  0.00  0.00  0.00
  WS02004138WS02004139    1.00   0.00  0.00  0.00  1.00  0.00  0.00  0.00  1.00  0.00
  WS02003067WS02003066    1.00   0.05  0.00  0.00  0.94  0.00  0.00  0.00  0.00  0.00
  WS02001213WS02003059    1.00   0.00  0.00  0.00  1.00  0.00  0.00  0.00  0.00  0.00
  WS02001212WS02001213    1.00   0.00  0.00  0.00  0.91  0.00  0.09  0.00  0.00  0.00
  WS02001211WS02001212    1.00   0.00  0.00  0.00  1.00  0.00  0.00  0.00  0.00  0.00
  WS02003072WS02003073    1.00   0.00  0.00  0.00  0.00  0.00  0.00  1.00  0.00  0.00
  WS02003069WS02003072    1.00   0.00  0.00  0.00  1.00  0.00  0.00  0.00  0.19  0.00
  WS02003060WS02003069    1.00   0.00  0.00  0.00  1.00  0.00  0.00  0.00  0.05  0.00
  WS02003059WS02003060    1.00   0.00  0.00  0.00  1.00  0.00  0.00  0.00  0.01  0.00
  HS02004901HS02004770    1.00   0.03  0.00  0.00  0.97  0.00  0.00  0.00  0.00  0.00
  HS02004876HS02004881    1.00   0.00  0.00  0.00  0.83  0.17  0.00  0.00  0.00  0.00
  HS02004870HS02004876    1.00   0.00  0.00  0.00  1.00  0.00  0.00  0.00  0.95  0.00
  HS02004842HS02004848    1.00   0.00  0.03  0.00  0.97  0.00  0.00  0.00  0.54  0.00
  HS02004837HS02004842    1.00   0.00  0.00  0.00  1.00  0.00  0.00  0.00  0.11  0.00
  HS02004830HS02004837    1.00   0.00  0.00  0.00  1.00  0.00  0.00  0.00  0.99  0.00
  HS02004824HS02004830    1.00   0.00  0.00  0.00  1.00  0.00  0.00  0.00  0.03  0.00
  HS02004817HS02004824    1.00   0.00  0.00  0.00  1.00  0.00  0.00  0.00  0.88  0.00
  HS02004770HS02004777    1.00   0.00  0.03  0.00  0.97  0.00  0.00  0.00  0.02  0.00
  HS02004799HS02004480    1.00   0.00  0.01  0.00  0.96  0.00  0.04  0.00  0.00  0.00
  HS02004792HS02004799    1.00   0.00  0.00  0.00  1.00  0.00  0.00  0.00  0.98  0.00
  HS02004788HS02004792    1.00   0.00  0.00  0.00  1.00  0.00  0.00  0.00  0.98  0.00
  HS02004785HS02004788    1.00   0.00  0.00  0.00  1.00  0.00  0.00  0.00  0.00  0.00
  HS02004777HS02004785    1.00   0.00  0.00  0.00  1.00  0.00  0.00  0.00  0.11  0.00
  HS02004480HS02004478    1.00   0.04  0.00  0.00  0.72  0.00  0.00  0.24  0.00  0.00
  HS02004479HS02004480    1.00   0.01  0.00  0.00  0.99  0.00  0.00  0.00  0.11  0.00
  HS02004862HS02004870    1.00   0.00  0.00  0.00  1.00  0.00  0.00  0.00  0.02  0.00
  HS02004848HS02004852    1.00   0.03  0.00  0.00  0.97  0.00  0.00  0.00  0.82  0.00
  HS02004856HS02004862    1.00   0.00  0.04  0.00  0.96  0.00  0.00  0.00  0.84  0.00
  HS02004852HS02004856    1.00   0.03  0.01  0.00  0.96  0.00  0.00  0.00  0.70  0.00
  HS02004802HS02004478    1.00   0.04  0.00  0.00  0.96  0.00  0.00  0.00  0.02  0.00
  HS02004478WS02006287    1.00   0.04  0.00  0.00  0.76  0.20  0.00  0.00  0.58  0.00
  HS02004817HS02004807    1.00   0.00  0.03  0.00  0.97  0.00  0.00  0.00  0.01  0.00
  HS02004807HS02004802    1.00   0.03  0.00  0.00  0.96  0.00  0.00  0.01  0.00  0.00
  YS02001759YS02001757    1.00   0.00  0.00  0.00  1.00  0.00  0.00  0.00  0.15  0.00
  YS02001762YS02001759    1.00   0.00  0.00  0.00  1.00  0.00  0.00  0.00  0.02  0.00
  YS02001765YS02001762    1.00   0.00  0.00  0.00  1.00  0.00  0.00  0.00  0.13  0.00
  YS02001770YS02001767    1.00   0.00  0.00  0.00  1.00  0.00  0.00  0.00  0.00  0.00
  YS02001774YS02001770    1.00   0.00  0.04  0.00  0.96  0.00  0.00  0.00  0.02  0.00
  YS02001779YS02001774    1.00   0.00  0.00  0.00  1.00  0.00  0.00  0.00  0.16  0.00
  YS02001649YS02001757    1.00   0.00  0.00  0.00  1.00  0.00  0.00  0.00  0.15  0.00
  YS02001767YS02001765    1.00   0.00  0.00  0.00  1.00  0.00  0.00  0.00  0.00  0.00
  YS02006561YS02001783    1.00   0.05  0.00  0.00  0.44  0.52  0.00  0.00  0.39  0.00
  YS02001783YS02001784    1.00   0.00  0.05  0.00  0.95  0.00  0.00  0.00  0.00  0.00
  YS02001784YS02001785    1.00   0.00  0.00  0.00  1.00  0.00  0.00  0.00  0.16  0.00
  YS02001788YS02001790    1.00   0.00  0.00  0.00  0.49  0.51  0.00  0.00  0.34  0.00
  YS02001790YS02001791    1.00   0.00  0.00  0.00  0.45  0.55  0.00  0.00  0.36  0.00
  YS02001791YS02001793    1.00   0.00  0.00  0.00  0.46  0.54  0.00  0.00  0.01  0.00
  YS02001910YS02001907    1.00   0.00  0.00  0.00  1.00  0.00  0.00  0.00  0.12  0.00
  YS02001786YS02001788    1.00   0.00  0.00  0.00  0.48  0.52  0.00  0.00  0.00  0.00
  YS02001915YS02001910    1.00   0.00  0.00  0.00  0.99  0.01  0.00  0.00  0.13  0.00
  YS02001918YS02001915    1.00   0.00  0.00  0.00  1.00  0.00  0.00  0.00  0.45  0.00
  YS02001923YS02001920    1.00   0.00  0.00  0.00  1.00  0.00  0.00  0.00  0.64  0.00
  YS02001926YS02001923    1.00   0.00  0.01  0.00  0.29  0.00  0.69  0.00  0.00  0.00
  YS02001929YS02001926    1.00   0.00  0.03  0.00  0.97  0.00  0.00  0.00  0.56  0.00
  YS02001920YS02001918    1.00   0.00  0.00  0.00  1.00  0.00  0.00  0.00  0.00  0.00
  YS02001629YS02163301    1.00   0.04  0.00  0.00  0.96  0.00  0.00  0.00  0.00  0.00
  YS02001619YS02001622    1.00   0.03  0.00  0.00  0.97  0.00  0.00  0.00  0.00  0.00
  YS02001622YS02001625    1.00   0.03  0.00  0.00  0.97  0.00  0.00  0.00  0.03  0.00
  YS02001625YS02001629    1.00   0.03  0.01  0.00  0.95  0.00  0.01  0.00  0.00  0.00
  YS02163301YS02001633    1.00   0.00  0.04  0.00  0.96  0.00  0.00  0.00  0.00  0.00
  YS02163601YS02164001    1.00   0.00  0.01  0.00  0.99  0.00  0.00  0.00  0.00  0.00
  YS02164001YS02001641    1.00   0.00  0.01  0.00  0.99  0.00  0.00  0.00  0.06  0.00
  YS02001641YS02001644    1.00   0.00  0.00  0.00  1.00  0.00  0.00  0.00  0.00  0.00
  YS02001647YS02001649    1.00   0.00  0.04  0.00  0.96  0.00  0.00  0.00  0.01  0.00
  YS02006553YS02006556    1.00   0.00  0.00  0.00  1.00  0.00  0.00  0.00  0.03  0.00
  YS02006556YS02006558    1.00   0.00  0.00  0.00  1.00  0.00  0.00  0.00  0.00  0.00
  YSB6556YSB1171          1.00   0.01  0.02  0.00  0.97  0.00  0.00  0.00  0.00  0.00
  YS02001907YS02006553    1.00   0.00  0.00  0.00  1.00  0.00  0.00  0.00  0.00  0.00
  YS02006558YS02006561    1.00   0.05  0.00  0.00  0.32  0.63  0.00  0.00  0.34  0.00
  YS02001633YS02163601    1.00   0.00  0.00  0.00  1.00  0.00  0.00  0.00  0.15  0.00
  YS02001644YS02001647    1.00   0.00  0.04  0.00  0.96  0.00  0.00  0.00  0.00  0.00
  YS02001745YS02001748    1.00   0.00  0.00  0.00  0.94  0.00  0.00  0.06  0.00  0.00
  YS02001748YS02001751    1.00   0.00  0.00  0.00  0.98  0.02  0.00  0.00  0.13  0.00
  YS02001751YS02001754    1.00   0.00  0.00  0.00  0.95  0.00  0.00  0.05  0.01  0.00
  YS02001754YS02001757    1.00   0.00  0.00  0.00  1.00  0.00  0.00  0.00  0.16  0.00
  YS02001882YS02001884    1.00   0.04  0.00  0.00  0.96  0.00  0.00  0.00  0.00  0.00
  YS02001884YS02001887    1.00   0.01  0.01  0.00  0.98  0.00  0.00  0.00  0.00  0.00
  YS02001890YS02001895    1.00   0.00  0.04  0.00  0.96  0.00  0.00  0.00  0.00  0.00
  YS02001895YS02001898    1.00   0.04  0.00  0.00  0.95  0.00  0.00  0.00  0.00  0.00
  YS02001898YS02001901    1.00   0.04  0.00  0.00  0.96  0.00  0.00  0.00  0.00  0.00
  YS02001901YS02001904    1.00   0.04  0.00  0.00  0.96  0.00  0.00  0.00  0.00  0.00
  YS02001904YS02001907    1.00   0.00  0.04  0.00  0.96  0.00  0.00  0.00  0.00  0.00
  YS02001887YS02001890    1.00   0.00  0.00  0.00  0.99  0.00  0.00  0.00  0.00  0.00
  YS02001652YS02001649    1.00   0.00  0.00  0.00  1.00  0.00  0.00  0.00  0.15  0.00
  YS02001655YS02001652    1.00   0.00  0.00  0.00  0.95  0.00  0.00  0.05  0.01  0.00
  YS02001658YS02001655    1.00   0.00  0.04  0.00  0.95  0.01  0.00  0.00  0.01  0.00
  YS02001661YS02001658    1.00   0.04  0.00  0.00  0.94  0.02  0.00  0.00  0.00  0.00
  YS02001664YS02001661    1.00   0.03  0.00  0.00  0.95  0.02  0.00  0.00  0.07  0.00
  YSB1154YSB6556          1.00   0.03  0.00  0.00  0.97  0.00  0.00  0.00  0.01  0.00
  YSB1174YSB1171          1.00   0.01  0.01  0.00  0.98  0.00  0.00  0.00  0.00  0.00
  YSB1171HS02004479       1.00   0.01  0.00  0.00  0.99  0.00  0.00  0.00  0.10  0.00
  HS02004881HS02006253    1.00   0.01  0.00  0.00  0.71  0.07  0.00  0.21  0.61  0.00
  YS02001793JiankangQianchi    1.00   0.00  0.00  0.00  0.66  0.34  0.00  0.00  0.30  0.00
  YS02001757CaochengTiaoxuchi    1.00   0.00  0.05  0.00  0.92  0.03  0.00  0.00  0.00  0.00
  WSF200WS02003060        1.00   0.00  0.06  0.00  0.58  0.37  0.00  0.00  0.03  0.00
  1                       1.00   0.00  0.00  0.00  0.00  1.00  0.00  0.00  0.38  0.00
  2                       1.00   0.65  0.00  0.00  0.00  0.35  0.00  0.00  0.09  0.00
  3                       1.00   0.21  0.00  0.00  0.00  0.79  0.00  0.00  0.23  0.00
  4                       1.00   1.00  0.00  0.00  0.00  0.00  0.00  0.00  0.00  0.00
  
  
  *************************
  Conduit Surcharge Summary
  *************************
  
  ----------------------------------------------------------------------------
                                                           Hours        Hours 
                         --------- Hours Full --------   Above Full   Capacity
  Conduit                Both Ends  Upstream  Dnstream   Normal Flow   Limited
  ----------------------------------------------------------------------------
  WS02006229WS02006228        2.96      3.22      2.96      5.71         2.96
  WS02006256WS02006235        6.59      6.59      6.98      3.00         0.01
  WS02006252WS02006251        0.83      0.83      1.74      1.50         0.01
  WS02006251WS02006249        0.01      0.01      0.01      0.81         0.01
  WS02006249WS02006248        0.01      0.01      0.01      3.80         0.01
  WS02006248WS02006247        0.01      0.01      0.01      0.01         0.01
  WS02006247WS02006245        0.01      0.02      0.04      4.46         0.01
  WS02006245WS02006243        0.11      0.11      0.26      0.01         0.01
  WS02006243WS02006242        0.29      0.29      1.34      0.01         0.01
  WS02006242WS02006240        0.50      0.50      1.78      1.76         0.01
  WS02006240WS02006239        0.55      0.55      0.75      0.01         0.01
  WS02006239WS02006238        1.74      1.74      1.99      0.01         0.01
  WS02006238WS02006235        1.85      1.85      2.37      0.01         0.01
  WS02006235WS02006234        0.75      0.75      1.67      5.53         0.12
  WS02006234WS02006232        0.88      0.88      2.72      0.01         0.01
  WS02006232WS02006231        0.84      0.84      2.72      0.01         0.01
  WS02006231WS02006230        0.84      0.84      0.87      6.09         0.13
  WS02006230WS02006229        4.39      5.51      4.40      6.57         4.19
  WS02006228WS02006109        3.07      3.86      3.07      6.37         3.07
  WS02006116WS02004401        0.58      0.58      0.59      0.50         0.49
  WS02006115WS02006116        0.41      0.41      0.42      0.31         0.31
  WS02006112WS02006115        0.38      0.38      1.76      0.01         0.01
  WS02006111WS02006112        0.01      0.01      5.86      0.01         0.01
  WS02006110WS02006113        0.01      0.01      3.49      0.01         0.01
  WS02006109WS02006110        1.34      1.34      3.86      1.35         0.01
  WS02004411WS02004412        0.01      0.01      0.01      0.55         0.01
  WS02004401WS02004402        0.59      0.59      0.62      0.10         0.11
  WS02004410WS02004411        0.01      0.01      0.01      0.48         0.01
  WS02004409WS02004410        0.01      0.01      0.01      0.33         0.01
  WS02004406WS02004407        0.01      0.01      0.89      0.01         0.01
  WS02004405WS02004406        0.89      0.96      0.89      1.74         0.89
  WS02004404WS02004405        0.96      1.02      0.96      6.45         0.96
  WS02004403WS02004404        0.64      0.64      1.02      0.01         0.01
  WS02004402WS02004403        0.62      0.62      0.64      0.57         0.56
  WS02003072WS02003073        0.01      0.01      0.01      5.86         0.01
  HS02004876HS02004881        0.01      0.01      0.01      0.86         0.01
  HS02004817HS02004824        0.01      0.01      0.32      0.01         0.01
  HS02004785HS02004788        0.01      0.01      0.01      0.81         0.01
  HS02004480HS02004478        0.01      0.01      0.01      1.81         0.01
  HS02004817HS02004807        0.01      0.01      0.32      0.01         0.01
  YS02001759YS02001757        6.35      6.35      6.36      0.01         0.01
  YS02001762YS02001759        6.34      6.34      6.35      0.01         0.01
  YS02001765YS02001762        6.34      6.34      6.34      0.01         0.01
  YS02001770YS02001767        6.33      6.33      6.33      1.71         0.51
  YS02001774YS02001770        6.33      6.33      6.34      0.01         0.01
  YS02001779YS02001774        6.31      6.31      6.34      0.01         0.01
  YS02001649YS02001757        6.34      6.34      6.36      0.01         0.01
  YS02001767YS02001765        6.33      6.33      6.34      0.01         0.01
  YS02006561YS02001783        2.45      2.45      2.94      0.01         0.01
  YS02001783YS02001784        2.93      2.94      2.99      2.81         2.74
  YS02001784YS02001785        2.92      2.99      2.92      3.57         2.91
  YS02001788YS02001790        2.89      2.89      3.41      0.01         0.01
  YS02001790YS02001791        3.41      3.41      3.44      2.30         2.30
  YS02001791YS02001793        3.44      3.44      3.54      0.01         0.01
  YS02001910YS02001907        2.74      2.74      3.03      0.01         0.01
  YS02001786YS02001788        2.89      2.92      2.89      3.17         2.89
  YS02001915YS02001910        2.56      2.56      2.74      0.01         0.01
  YS02001918YS02001915        2.34      2.34      2.56      0.01         0.01
  YS02001923YS02001920        2.16      2.16      2.37      0.01         0.01
  YS02001926YS02001923        0.01      0.01      0.01      0.01         0.01
  YS02001929YS02001926        0.01      0.01      0.01      0.01         0.01
  YS02001920YS02001918        2.34      2.34      2.37      0.01         0.01
  YS02001629YS02163301        6.33      6.33      6.33      0.01         0.01
  YS02001619YS02001622        6.31      6.31      6.31      0.01         0.02
  YS02001622YS02001625        6.31      6.31      6.32      0.01         0.01
  YS02001625YS02001629        6.31      6.31      6.32      0.01         0.01
  YS02163301YS02001633        6.33      6.33      6.33      0.01         0.01
  YS02163601YS02164001        6.33      6.33      6.34      0.01         0.01
  YS02164001YS02001641        6.33      6.33      6.34      0.01         0.02
  YS02001641YS02001644        6.34      6.34      6.34      3.05         3.11
  YS02001647YS02001649        6.32      6.32      6.34      0.01         0.01
  YS02006553YS02006556        2.90      2.90      3.08      0.01         0.01
  YS02006556YS02006558        2.96      2.96      3.14      0.01         0.01
  YSB6556YSB1171              0.01      0.01      0.43      0.01         0.01
  YS02001907YS02006553        3.54      3.54      3.72      0.01         0.01
  YS02006558YS02006561        2.61      2.88      2.61      3.40         2.61
  YS02001633YS02163601        6.33      6.33      6.34      0.01         0.01
  YS02001644YS02001647        6.32      6.32      6.34      0.01         0.01
  YS02001745YS02001748        0.84      0.84      6.28      0.01         0.01
  YS02001748YS02001751        6.29      6.29      6.30      0.01         0.01
  YS02001751YS02001754        6.30      6.30      6.31      0.01         0.01
  YS02001754YS02001757        6.31      6.31      6.36      0.01         0.01
  YS02001882YS02001884        2.57      2.57      2.60      0.01         0.01
  YS02001884YS02001887        2.65      2.65      2.68      0.01         0.01
  YS02001890YS02001895        2.54      2.54      2.76      0.01         0.01
  YS02001895YS02001898        2.53      2.53      2.54      0.01         0.01
  YS02001898YS02001901        2.55      2.55      2.64      0.01         0.01
  YS02001901YS02001904        2.62      2.62      2.64      0.01         0.01
  YS02001904YS02001907        2.62      2.62      3.11      0.01         0.01
  YS02001887YS02001890        2.70      2.70      2.73      1.55         0.01
  YS02001652YS02001649        6.32      6.32      6.34      0.01         0.01
  YS02001655YS02001652        6.30      6.30      6.31      0.01         0.01
  YS02001658YS02001655        6.29      6.29      6.30      0.01         0.01
  YS02001661YS02001658        1.27      1.27      6.29      0.01         0.01
  YS02001664YS02001661        0.01      0.01      2.64      0.01         0.01
  YSB1174YSB1171              0.01      0.01      0.16      0.01         0.01
  YS02001793JiankangQianchi        3.51      3.51      5.29      0.01         0.01
  YS02001757CaochengTiaoxuchi        5.91      5.91      6.36      0.01         0.01
  
  
  ***************
  Pumping Summary
  ***************
  
  ---------------------------------------------------------------------------------------------------------
                                                  Min       Avg       Max     Total     Power    % Time Off
                        Percent   Number of      Flow      Flow      Flow    Volume     Usage    Pump Curve
  Pump                 Utilized   Start-Ups       LPS       LPS       LPS  10^6 ltr     Kw-hr    Low   High
  ---------------------------------------------------------------------------------------------------------
  CC-Pump-1               42.54           5      0.00    145.63    200.00     1.740      1.69    0.0    0.0
  CC-Pump-2               52.05           3      0.00    152.32    200.00     2.169      1.96    0.0    1.9
  JK-Pump-1               44.68           5      0.00    188.37    300.00     2.288     27.45    0.0    0.0
  JK-Pump-2               53.19           2      0.00    217.26    300.00     3.131     39.22    0.0    0.0
  XR-Pump-1               91.48           7      0.00     70.65     95.00     1.967     14.88    0.0    0.0
  XR-Pump-2               87.22           7      0.00     71.13     95.00     1.824     12.72    0.0    0.0
  XR-Pump-3               82.97           6      0.00     74.39     95.00     1.881     15.24    0.0    0.0
  XR-Pump-4               55.29           7      0.00     61.78     95.00     0.940      5.80    0.0    0.0
  

  Analysis begun on:  Wed Dec 22 10:14:48 2021
  Analysis ended on:  Wed Dec 22 10:14:52 2021
  Total elapsed time: 00:00:04