
  EPA STORM WATER MANAGEMENT MODEL - VERSION 5.1 (Build 5.3.0.dev0)
  --------------------------------------------------------------

  WARNING 04: minimum elevation drop used for Conduit WS02004404WS02004405
  WARNING 03: negative offset ignored for Link YS02001904YS02001907
  
  *********************************************************
  NOTE: The summary statistics displayed in this report are
  based on results found at every computational time step,  
  not just on results from each reporting time step.
  *********************************************************
  
  ****************
  Analysis Options
  ****************
  Flow Units ............... LPS
  Process Models:
    Rainfall/Runoff ........ YES
    RDII ................... NO
    Snowmelt ............... NO
    Groundwater ............ NO
    Flow Routing ........... YES
    Ponding Allowed ........ NO
    Water Quality .......... NO
  Infiltration Method ...... HORTON
  Flow Routing Method ...... DYNWAVE
  Surcharge Method ......... EXTRAN
  Starting Date ............ 08/28/2015 08:00:00
  Ending Date .............. 08/28/2015 15:50:00
  Antecedent Dry Days ...... 8.0
  Report Time Step ......... 00:01:00
  Wet Time Step ............ 00:01:00
  Dry Time Step ............ 00:01:00
  Routing Time Step ........ 5.00 sec
  Variable Time Step ....... YES
  Maximum Trials ........... 8
  Number of Threads ........ 4
  Head Tolerance ........... 0.001500 m
  
  
  **************************        Volume         Depth
  Runoff Quantity Continuity     hectare-m            mm
  **************************     ---------       -------
  Total Precipitation ......         7.641        16.729
  Evaporation Loss .........         0.000         0.000
  Infiltration Loss ........         1.880         4.117
  Surface Runoff ...........         4.668        10.221
  Final Storage ............         1.093         2.393
  Continuity Error (%) .....        -0.013
  
  
  **************************        Volume        Volume
  Flow Routing Continuity        hectare-m      10^6 ltr
  **************************     ---------     ---------
  Dry Weather Inflow .......         0.616         6.165
  Wet Weather Inflow .......         4.667        46.672
  Groundwater Inflow .......         0.000         0.000
  RDII Inflow ..............         0.000         0.000
  External Inflow ..........         0.102         1.024
  External Outflow .........         1.855        18.551
  Flooding Loss ............         3.003        30.029
  Evaporation Loss .........         0.000         0.000
  Exfiltration Loss ........         0.000         0.000
  Initial Stored Volume ....         0.076         0.761
  Final Stored Volume ......         0.661         6.607
  Continuity Error (%) .....        -1.036
  
  
  *************************
  Highest Continuity Errors
  *************************
  Node HS02004842 (12.71%)
  Node YS02001884 (10.45%)
  Node JK-storage (-4.73%)
  Node HS02004817 (2.32%)
  Node YSB1171 (2.18%)
  
  
  ***************************
  Time-Step Critical Elements
  ***************************
  Link WS02006252WS02006251 (41.50%)
  Link 3 (39.65%)
  Link WS02006280WS02006229 (7.58%)
  Link WS02006238WS02006235 (4.19%)
  
  
  ********************************
  Highest Flow Instability Indexes
  ********************************
  Link WS02006113WS02006111 (43)
  Link YS02001619YS02001622 (27)
  Link YS02163601YS02164001 (27)
  Link YS02001629YS02163301 (26)
  Link YS02163301YS02001633 (26)
  
  
  *************************
  Routing Time Step Summary
  *************************
  Minimum Time Step           :     0.50 sec
  Average Time Step           :     0.93 sec
  Maximum Time Step           :     5.00 sec
  Percent in Steady State     :    -0.00
  Average Iterations per Step :     3.97
  Percent Not Converging      :    16.35
  
  
  ***************************
  Subcatchment Runoff Summary
  ***************************
  
  ------------------------------------------------------------------------------------------------------------------------------
                            Total      Total      Total      Total     Imperv       Perv      Total       Total     Peak  Runoff
                           Precip      Runon       Evap      Infil     Runoff     Runoff     Runoff      Runoff   Runoff   Coeff
  Subcatchment                 mm         mm         mm         mm         mm         mm         mm    10^6 ltr      LPS
  ------------------------------------------------------------------------------------------------------------------------------
  sub0                      16.73       0.00       0.00       0.97      14.29       0.20      14.50        0.01     3.66   0.867
  sub1                      16.73       0.00       0.00       1.58      13.63       0.26      13.89        0.09    24.51   0.830
  sub2                      16.73       0.00       0.00       5.80       9.63       0.39      10.02        0.09    22.91   0.599
  sub3                      16.73       0.00       0.00       5.88       9.59       0.31       9.90        0.22    50.49   0.592
  sub4                      16.73       0.00       0.00       1.65      13.47       0.19      13.66        0.28    60.01   0.817
  sub5                      16.73       0.00       0.00       0.99      14.24       0.18      14.42        0.16    43.61   0.862
  sub7                      16.73       0.00       0.00       1.26      13.97       0.24      14.21        0.05    13.82   0.849
  sub8                      16.73       0.00       0.00       1.27      13.96       0.23      14.19        0.09    25.44   0.848
  sub9                      16.73       0.00       0.00       1.27      13.96       0.23      14.19        0.07    19.02   0.848
  sub10                     16.73       0.00       0.00       1.13      14.10       0.21      14.30        0.16    42.73   0.855
  sub11                     16.73       0.00       0.00       1.12      14.11       0.21      14.33        0.17    47.25   0.857
  sub12                     16.73       0.00       0.00       1.83      13.37       0.35      13.71        0.12    35.87   0.820
  sub14                     16.73       0.00       0.00       1.27      13.95       0.23      14.19        0.14    37.43   0.848
  sub15                     16.73       0.00       0.00       4.53      10.73       0.49      11.22        0.19    51.47   0.671
  sub16                     16.73       0.00       0.00       4.88      10.29       0.64      10.93        0.11    32.57   0.653
  sub17                     16.73       0.00       0.00       4.74      10.44       0.61      11.05        0.09    26.81   0.661
  sub22                     16.73       0.00       0.00       6.60       8.75       0.59       9.34        0.59   160.16   0.558
  sub23                     16.73       0.00       0.00       5.59       9.67       0.60      10.27        0.49   134.74   0.614
  sub60                     16.73       0.00       0.00       1.94      11.65       0.06      11.71        3.55   386.89   0.700
  sub61                     16.73       0.00       0.00       2.75      11.65       0.09      11.73        3.62   476.87   0.701
  sub62                     16.73       0.00       0.00       1.26      12.72       0.07      12.79        3.93   491.27   0.765
  sub63                     16.73       0.00       0.00       4.75      10.14       0.10      10.23        3.10   437.54   0.612
  sub64                     16.73       0.00       0.00       2.45      11.19       0.06      11.26        3.42   367.58   0.673
  sub65                     16.73       0.00       0.00       2.11      11.40       0.06      11.46        3.52   372.98   0.685
  sub66                     16.73       0.00       0.00       4.79       9.55       0.06       9.61        2.95   336.52   0.575
  sub67                     16.73       0.00       0.00       1.24      13.25       0.09      13.35        4.12   605.48   0.798
  sub68                     16.73       0.00       0.00       2.25      12.20       0.10      12.30        3.78   521.64   0.735
  sub69                     16.73       0.00       0.00       2.37      12.50       0.14      12.64        2.95   482.20   0.755
  sub70                     16.73      12.90       0.00       8.98      17.16       1.09      18.25        4.18   460.88   0.616
  sub71                     16.73       0.00       0.00       1.27      12.46       0.07      12.53        2.96   345.19   0.749
  sub72                     16.73       0.00       0.00       1.14      10.39       0.03      10.43        2.12   185.81   0.623
  sub73                     16.73      17.77       0.00       9.78      19.72       1.38      21.10        4.96   482.28   0.612
  sub74                     16.73       0.00       0.00      12.48       3.71       0.07       3.78        1.51   261.10   0.226
  
  
  ******************
  Node Depth Summary
  ******************
  
  ---------------------------------------------------------------------------------
                                 Average  Maximum  Maximum  Time of Max    Reported
                                   Depth    Depth      HGL   Occurrence   Max Depth
  Node                 Type       Meters   Meters   Meters  days hr:min      Meters
  ---------------------------------------------------------------------------------
  WS02001211           JUNCTION     0.66     0.76     5.60     0  01:55        0.76
  WS02001212           JUNCTION     0.39     0.50     5.56     0  01:58        0.50
  WS02001213           JUNCTION     0.62     0.77     5.53     0  01:59        0.77
  WS02003069           JUNCTION     0.44     0.64     5.22     0  02:00        0.64
  WS02003072           JUNCTION     0.51     0.69     5.06     0  02:00        0.69
  WS02003073           JUNCTION     0.30     0.43     4.49     0  02:01        0.43
  WS02003060           JUNCTION     0.39     0.56     5.50     0  01:59        0.56
  WS02003066           JUNCTION     0.23     0.35     5.91     0  02:00        0.35
  WS02003059           JUNCTION     0.68     0.83     5.52     0  01:59        0.83
  WS02003067           JUNCTION     0.57     0.78     6.10     0  01:59        0.78
  WS02004401           JUNCTION     0.67     1.08     7.08     0  01:57        1.08
  WS02004402           JUNCTION     0.70     1.09     7.05     0  01:57        1.09
  WS02004403           JUNCTION     0.71     1.08     7.01     0  01:57        1.08
  WS02004404           JUNCTION     0.79     1.14     6.99     0  01:57        1.14
  WS02004406           JUNCTION     0.79     1.09     6.92     0  01:57        1.09
  WS02004409           JUNCTION     0.48     0.83     6.60     0  01:59        0.83
  WS02004410           JUNCTION     0.50     0.83     6.55     0  01:59        0.83
  WS02004411           JUNCTION     0.52     0.83     6.51     0  01:59        0.83
  WS02004412           JUNCTION     0.53     0.82     6.46     0  01:59        0.82
  WS02004413           JUNCTION     0.69     0.96     6.43     0  02:00        0.96
  WS02004405           JUNCTION     0.78     1.12     6.97     0  01:57        1.12
  WS02006109           JUNCTION     0.75     1.22     7.83     0  01:57        1.21
  WS02006110           JUNCTION     0.74     1.08     7.66     0  01:57        1.08
  WS02006111           JUNCTION     0.22     0.55     7.26     0  01:57        0.55
  WS02006112           JUNCTION     0.84     1.35     7.24     0  01:57        1.34
  WS02006113           JUNCTION     0.34     0.58     7.47     0  01:57        0.58
  WS02006115           JUNCTION     0.56     1.03     7.17     0  01:57        1.03
  WS02006116           JUNCTION     0.64     1.09     7.13     0  01:57        1.09
  WS02006230           JUNCTION     0.72     1.31     8.06     0  01:56        1.31
  WS02006231           JUNCTION     0.47     0.95     8.07     0  01:55        0.94
  WS02006232           JUNCTION     0.60     1.03     8.07     0  01:57        1.01
  WS02006234           JUNCTION     0.52     0.92     8.07     0  01:54        0.91
  WS02006235           JUNCTION     0.54     0.92     8.09     0  01:56        0.91
  WS02006238           JUNCTION     0.57     0.95     8.09     0  01:56        0.93
  WS02006240           JUNCTION     0.47     0.81     8.10     0  01:55        0.79
  WS02006242           JUNCTION     0.52     0.84     8.11     0  01:54        0.83
  WS02006243           JUNCTION     0.40     0.69     8.11     0  01:56        0.69
  WS02006245           JUNCTION     0.39     0.63     8.12     0  01:57        0.63
  WS02006247           JUNCTION     0.41     0.64     8.14     0  04:20        0.64
  WS02006248           JUNCTION     0.35     0.58     8.17     0  04:20        0.58
  WS02006249           JUNCTION     0.38     0.60     8.20     0  04:20        0.60
  WS02006239           JUNCTION     0.53     0.89     8.10     0  01:54        0.87
  WS02006251           JUNCTION     0.37     0.62     8.29     0  04:20        0.62
  WS02006252           JUNCTION     0.31     0.59     8.83     0  04:19        0.59
  WS02006253           JUNCTION     0.40     0.64     8.29     0  04:20        0.64
  WS02006256           JUNCTION     0.96     1.20     8.14     0  04:30        1.20
  WS02004138           JUNCTION     0.15     0.19     7.44     0  01:50        0.19
  WS02004407           JUNCTION     0.22     0.36     6.67     0  01:58        0.36
  WS02006228           JUNCTION     0.75     1.33     7.98     0  01:56        1.32
  WS02006229           JUNCTION     0.73     1.35     8.05     0  01:57        1.35
  WS02006280           JUNCTION     0.07     0.25     8.52     0  01:55        0.25
  WS02006284           JUNCTION     0.37     0.64     9.04     0  01:55        0.64
  WS02006287           JUNCTION     0.10     0.38     9.33     0  01:54        0.38
  WSF200               JUNCTION     0.22     0.39     5.62     0  02:00        0.39
  HS02004901           JUNCTION     0.13     0.36    10.18     0  01:52        0.36
  HS02004881           JUNCTION     0.01     0.05     9.08     0  01:55        0.05
  HS02004876           JUNCTION     0.04     0.16     9.19     0  01:55        0.16
  HS02004870           JUNCTION     0.02     0.09     9.38     0  01:55        0.09
  HS02004862           JUNCTION     0.02     0.11     9.49     0  01:55        0.11
  HS02004856           JUNCTION     0.08     0.15     9.58     0  01:55        0.15
  HS02004852           JUNCTION     0.01     0.07     9.59     0  01:55        0.07
  HS02004848           JUNCTION     0.01     0.07     9.67     0  01:55        0.07
  HS02004842           JUNCTION     0.34     0.40     9.67     0  01:55        0.40
  HS02004837           JUNCTION     0.03     0.09     9.67     0  01:55        0.09
  HS02004830           JUNCTION     0.04     0.10     9.57     0  01:56        0.10
  HS02004824           JUNCTION     0.03     0.12     9.53     0  01:55        0.12
  HS02004817           JUNCTION     0.45     0.69     9.53     0  01:55        0.69
  HS02004807           JUNCTION     0.13     0.36     9.53     0  01:55        0.36
  HS02004802           JUNCTION     0.17     0.39     9.52     0  01:55        0.39
  HS02004799           JUNCTION     0.12     0.45     9.66     0  01:53        0.45
  HS02004792           JUNCTION     0.04     0.20     9.73     0  01:52        0.20
  HS02004788           JUNCTION     0.03     0.15    10.05     0  01:53        0.15
  HS02004785           JUNCTION     0.05     0.23    10.14     0  01:52        0.23
  HS02004777           JUNCTION     0.15     0.37    10.17     0  01:52        0.37
  HS02004770           JUNCTION     0.12     0.35    10.18     0  01:52        0.35
  HS02004480           JUNCTION     0.08     0.37     9.61     0  01:53        0.37
  HS02004479           JUNCTION     0.12     0.41     9.61     0  01:53        0.41
  HS02004478           JUNCTION     0.07     0.27     9.50     0  01:54        0.27
  YS02001745           JUNCTION     0.77     0.96     8.47     0  02:46        0.96
  YS02001748           JUNCTION     1.18     1.39     8.47     0  02:46        1.39
  YS02001751           JUNCTION     1.36     1.72     8.59     0  01:48        1.58
  YS02001754           JUNCTION     1.61     1.85     8.45     0  02:46        1.85
  YS02001762           JUNCTION     1.81     2.04     8.44     0  02:42        2.04
  YS02001765           JUNCTION     1.77     1.99     8.44     0  02:42        1.99
  YS02001767           JUNCTION     1.73     1.94     8.43     0  02:42        1.94
  YS02001770           JUNCTION     1.73     1.93     8.42     0  02:45        1.93
  YS02001774           JUNCTION     1.79     1.98     8.40     0  02:30        1.98
  YS02001779           JUNCTION     1.54     1.68     8.37     0  01:47        1.68
  YS02001882           JUNCTION     0.59     1.83     8.55     0  01:54        1.63
  YS02001884           JUNCTION     0.69     1.91     8.52     0  01:54        1.72
  YS02001759           JUNCTION     1.85     2.08     8.45     0  02:45        2.08
  YS02001887           JUNCTION     0.76     1.91     8.44     0  01:54        1.80
  YS02001890           JUNCTION     0.79     1.81     8.32     0  01:54        1.81
  YS02001898           JUNCTION     0.56     1.62     8.36     0  01:54        1.56
  YS02001901           JUNCTION     0.68     1.73     8.34     0  01:54        1.68
  YS02001904           JUNCTION     0.66     1.70     8.33     0  01:54        1.63
  YS02001907           JUNCTION     0.99     1.96     8.25     0  01:56        1.96
  YS02001910           JUNCTION     0.78     2.00     8.51     0  01:54        1.80
  YS02001915           JUNCTION     0.58     2.00     8.72     0  01:54        1.62
  YS02001918           JUNCTION     0.33     1.78     8.84     0  01:56        1.34
  YS02001619           JUNCTION     1.32     1.61     8.54     0  01:47        1.61
  YS02001629           JUNCTION     1.68     1.85     8.40     0  01:47        1.84
  YS02001641           JUNCTION     1.77     1.94     8.37     0  02:30        1.93
  YS02001644           JUNCTION     1.78     1.92     8.35     0  01:52        1.92
  YS02001652           JUNCTION     1.63     2.10     8.69     0  02:18        1.91
  YS02001655           JUNCTION     1.39     2.03     8.88     0  02:18        1.73
  YS02001920           JUNCTION     0.43     1.80     8.81     0  01:57        1.42
  YS02001923           JUNCTION     0.27     1.68     8.94     0  01:57        1.19
  YS02001926           JUNCTION     0.31     1.90     9.35     0  01:57        1.01
  YS02001929           JUNCTION     0.18     0.90     8.60     0  01:57        0.78
  YS02001658           JUNCTION     1.12     2.06     9.21     0  02:18        1.50
  YS02001661           JUNCTION     0.88     2.33     9.74     0  02:18        1.49
  YS02001664           JUNCTION     0.39     0.57     8.49     0  04:16        0.56
  YS02001622           JUNCTION     1.34     1.62     8.52     0  01:47        1.60
  YS02001633           JUNCTION     1.77     1.95     8.41     0  01:56        1.94
  YS02001649           JUNCTION     1.82     2.05     8.44     0  02:03        2.05
  YS02001757           JUNCTION     1.95     2.19     8.45     0  02:45        2.19
  YS02001895           JUNCTION     0.55     1.60     8.35     0  01:54        1.56
  YS02001625           JUNCTION     1.63     1.78     8.38     0  01:47        1.78
  YS02163301           JUNCTION     1.71     1.89     8.41     0  01:49        1.87
  YS02163601           JUNCTION     1.82     1.99     8.39     0  01:56        1.98
  YS02164001           JUNCTION     1.76     1.92     8.38     0  01:56        1.91
  YS02001647           JUNCTION     1.61     1.81     8.42     0  02:05        1.78
  YSB1154              JUNCTION     0.26     0.56     9.62     0  01:53        0.56
  YSB6556              JUNCTION     0.15     0.44     9.61     0  01:53        0.44
  YSB1174              JUNCTION     0.21     0.50     9.61     0  01:53        0.50
  YSB1171              JUNCTION     0.42     0.71     9.61     0  01:53        0.71
  YS02006553           JUNCTION     0.99     1.97     8.25     0  02:13        1.97
  YS02006561           JUNCTION     0.35     1.20     7.86     0  01:54        1.09
  YS02006556           JUNCTION     0.96     1.95     8.26     0  01:56        1.93
  YS02006558           JUNCTION     1.00     1.99     8.25     0  01:56        1.97
  YS02001783           JUNCTION     0.57     1.74     7.88     0  01:53        1.47
  YS02001784           JUNCTION     0.59     1.95     8.02     0  01:53        1.41
  YS02001786           JUNCTION     0.53     2.23     8.26     0  01:53        1.26
  YS02001788           JUNCTION     0.45     2.28     8.26     0  01:53        1.13
  YS02001790           JUNCTION     0.57     1.96     7.60     0  01:53        1.29
  YS02001791           JUNCTION     0.55     2.24     7.71     0  01:53        1.27
  YS02001793           JUNCTION     0.77     2.02     6.85     0  01:53        1.80
  WS02004139           JUNCTION     0.61     0.71     5.62     0  01:52        0.71
  WSC                  OUTFALL      0.30     0.43     1.10     0  02:02        0.43
  3                    OUTFALL      0.09     0.20     6.20     0  04:30        0.20
  4                    OUTFALL      0.01     0.10     7.10     0  04:20        0.10
  5                    OUTFALL      0.00     0.00     5.00     0  00:00        0.00
  JK-storage           STORAGE      3.21     5.80     6.60     0  01:53        5.80
  CC-storage           STORAGE      1.19     1.45     8.45     0  02:44        1.45
  XR-storage           STORAGE      7.04     7.72     5.72     0  02:13        7.72
  
  
  *******************
  Node Inflow Summary
  *******************
  
  -------------------------------------------------------------------------------------------------
                                  Maximum  Maximum                  Lateral       Total        Flow
                                  Lateral    Total  Time of Max      Inflow      Inflow     Balance
                                   Inflow   Inflow   Occurrence      Volume      Volume       Error
  Node                 Type           LPS      LPS  days hr:min    10^6 ltr    10^6 ltr     Percent
  -------------------------------------------------------------------------------------------------
  WS02001211           JUNCTION      7.35   378.95     0  01:50       0.207        7.22       0.401
  WS02001212           JUNCTION      0.00   370.58     0  01:51           0        7.19       0.289
  WS02001213           JUNCTION      0.00   363.20     0  01:51           0        7.17       0.221
  WS02003069           JUNCTION      0.32  1097.10     0  02:00     0.00902        15.3       0.145
  WS02003072           JUNCTION      0.00  1097.04     0  02:00           0        15.3       0.191
  WS02003073           JUNCTION      1.82  1099.09     0  02:01      0.0514        15.3       0.208
  WS02003060           JUNCTION     16.53  1096.55     0  01:59       0.466        15.4       0.137
  WS02003066           JUNCTION      0.00   777.73     0  02:00           0        7.77       0.043
  WS02003059           JUNCTION      0.00   351.89     0  01:51           0        7.16       0.432
  WS02003067           JUNCTION      0.00   777.59     0  02:00           0        7.78       0.094
  WS02004401           JUNCTION      0.00   779.64     0  01:57           0        7.96       0.197
  WS02004402           JUNCTION      0.00   779.66     0  01:58           0        7.94       0.192
  WS02004403           JUNCTION      0.00   779.68     0  01:58           0        7.93       0.180
  WS02004404           JUNCTION      0.16   779.83     0  01:58     0.00457        7.92       0.142
  WS02004406           JUNCTION      0.00   779.82     0  01:57           0        7.89       0.345
  WS02004409           JUNCTION      0.00   779.76     0  01:58           0        7.86       0.132
  WS02004410           JUNCTION      0.00   778.42     0  01:58           0        7.85       0.161
  WS02004411           JUNCTION      0.00   777.80     0  01:59           0        7.83       0.173
  WS02004412           JUNCTION      0.00   777.59     0  01:59           0        7.82       0.197
  WS02004413           JUNCTION      0.00   777.55     0  01:59           0        7.81       0.310
  WS02004405           JUNCTION      0.04   779.85     0  01:58     0.00107        7.91       0.211
  WS02006109           JUNCTION      1.23   755.96     0  01:56      0.0347        7.94       0.152
  WS02006110           JUNCTION      0.00   755.97     0  01:56           0        7.93       0.166
  WS02006111           JUNCTION      0.00   754.83     0  01:57           0        7.91       0.024
  WS02006112           JUNCTION     26.81   779.71     0  01:58      0.0948           8       0.252
  WS02006113           JUNCTION      0.00   755.88     0  01:56           0        7.91       0.054
  WS02006115           JUNCTION      0.00   779.71     0  01:57           0        7.98       0.183
  WS02006116           JUNCTION      0.00   779.72     0  01:57           0        7.97       0.142
  WS02006230           JUNCTION     10.28   396.58     0  04:42        0.29        5.24       0.088
  WS02006231           JUNCTION      0.00   386.97     0  04:42           0        4.95       0.090
  WS02006232           JUNCTION      0.00   387.00     0  04:42           0        4.95       0.158
  WS02006234           JUNCTION      0.00   387.59     0  04:41           0        4.95       0.019
  WS02006235           JUNCTION      0.00   389.67     0  03:41           0        5.03       0.076
  WS02006238           JUNCTION      0.00   315.64     0  04:11           0        3.69       0.032
  WS02006240           JUNCTION      0.00   330.50     0  04:10           0        3.65       0.041
  WS02006242           JUNCTION      0.00   337.79     0  04:11           0        3.63       0.056
  WS02006243           JUNCTION      0.00   342.44     0  04:11           0        3.61      -0.268
  WS02006245           JUNCTION      0.00   345.18     0  04:11           0        3.62       0.192
  WS02006247           JUNCTION      0.00   347.38     0  03:40           0        3.62       0.030
  WS02006248           JUNCTION      0.00   353.24     0  03:40           0        3.62      -0.060
  WS02006249           JUNCTION      0.00   402.84     0  04:11           0        3.79       0.106
  WS02006239           JUNCTION      0.00   322.07     0  04:10           0        3.66      -0.081
  WS02006251           JUNCTION      0.08   404.28     0  04:11     0.00217        3.81      -0.005
  WS02006252           JUNCTION      0.00   400.00     0  04:10           0        3.24       0.003
  WS02006253           JUNCTION      3.66   142.87     0  01:54      0.0117       0.567      -0.005
  WS02006256           JUNCTION      0.00   600.00     0  04:50           0        4.44       0.041
  WS02004138           JUNCTION      0.00   379.95     0  01:50           0        7.04       0.065
  WS02004407           JUNCTION      0.00   779.86     0  01:58           0        7.86       0.056
  WS02006228           JUNCTION      0.00   754.81     0  01:56           0        7.91       0.107
  WS02006229           JUNCTION      0.00   755.94     0  01:54           0        7.93       0.098
  WS02006280           JUNCTION      0.00   656.05     0  01:55           0         2.7       0.003
  WS02006284           JUNCTION      0.10   655.97     0  01:55      0.0027         2.7       0.039
  WS02006287           JUNCTION      0.00   655.81     0  01:54           0         2.7       0.027
  WSF200               JUNCTION      0.00   777.77     0  02:00           0        7.77       0.038
  HS02004901           JUNCTION     32.57    32.57     0  01:50       0.114       0.115       1.560
  HS02004881           JUNCTION     13.82   139.59     0  01:54      0.0479       0.529       0.052
  HS02004876           JUNCTION     24.51   126.37     0  01:54      0.0923       0.482       0.114
  HS02004870           JUNCTION     25.44   102.13     0  01:54      0.0907        0.39       0.028
  HS02004862           JUNCTION     23.11    77.53     0  01:55       0.099       0.299       0.058
  HS02004856           JUNCTION     19.02    54.51     0  01:55      0.0682       0.202       0.722
  HS02004852           JUNCTION      0.00    36.10     0  01:55           0       0.134       0.042
  HS02004848           JUNCTION     50.49    50.49     0  01:57       0.223       0.223       0.021
  HS02004842           JUNCTION      0.00    15.55     0  02:06           0       0.102      14.561
  HS02004837           JUNCTION     49.08    62.50     0  01:55       0.337       0.426       0.191
  HS02004830           JUNCTION      0.15    62.61     0  01:55     0.00423       0.416       0.297
  HS02004824           JUNCTION     60.06   122.21     0  01:58       0.286       0.702       0.077
  HS02004817           JUNCTION      0.60   124.03     0  01:59      0.0169       0.718       2.377
  HS02004807           JUNCTION     47.25   168.28     0  01:57       0.166       0.868       0.499
  HS02004802           JUNCTION      0.00   169.24     0  01:58           0       0.865       0.461
  HS02004799           JUNCTION     37.43   414.52     0  01:52       0.135        1.57       0.167
  HS02004792           JUNCTION    160.44   377.30     0  01:52       0.598        1.44       0.028
  HS02004788           JUNCTION     53.14   218.54     0  01:52        0.24       0.839       0.046
  HS02004785           JUNCTION      0.15   165.59     0  01:52     0.00423       0.601       0.083
  HS02004777           JUNCTION      0.03   165.80     0  01:51    0.000846       0.601       0.871
  HS02004770           JUNCTION    134.74   166.64     0  01:51        0.49       0.603       0.517
  HS02004480           JUNCTION      0.00   492.21     0  01:53           0        1.85       0.065
  HS02004479           JUNCTION      0.00    78.00     0  01:53           0       0.292       0.251
  HS02004478           JUNCTION      0.00   655.76     0  01:54           0         2.7       0.013
  YS02001745           JUNCTION    386.89   386.89     0  02:16        3.55        3.55       0.328
  YS02001748           JUNCTION      0.04   397.34     0  02:16     0.00127        3.54       0.655
  YS02001751           JUNCTION      0.01   397.41     0  02:16     0.00031        3.52       0.677
  YS02001754           JUNCTION      0.26   397.56     0  02:16     0.00733         3.5       0.701
  YS02001762           JUNCTION      0.00   430.81     0  02:02           0        2.51       0.836
  YS02001765           JUNCTION      0.00   430.30     0  02:02           0        2.51       0.974
  YS02001767           JUNCTION      0.54   430.36     0  02:02      0.0151        2.54       1.419
  YS02001770           JUNCTION    491.42   724.02     0  02:48        3.94        4.93       0.638
  YS02001774           JUNCTION      0.00   724.14     0  02:48           0        3.38       0.741
  YS02001779           JUNCTION      0.01   724.19     0  02:48    0.000141        3.35       0.465
  YS02001882           JUNCTION      0.00    16.93     0  01:53           0      0.0212      10.284
  YS02001884           JUNCTION      0.00    43.69     0  01:52           0      0.0561      11.671
  YS02001759           JUNCTION    476.91   853.82     0  02:03        3.62        5.11       0.445
  YS02001887           JUNCTION    605.93   606.60     0  02:15        4.13        4.16       0.198
  YS02001890           JUNCTION      0.00   606.87     0  02:15           0        4.11       0.217
  YS02001898           JUNCTION      0.00   518.40     0  02:21           0           4       0.064
  YS02001901           JUNCTION      0.00   518.30     0  02:22           0           4       0.169
  YS02001904           JUNCTION      0.00   518.07     0  02:22           0        3.99       0.146
  YS02001907           JUNCTION      0.00  1135.65     0  01:58           0        9.14       0.258
  YS02001910           JUNCTION      0.00   625.44     0  01:58           0        5.16       0.225
  YS02001915           JUNCTION    345.21   625.08     0  01:58        2.96        5.21       0.109
  YS02001918           JUNCTION      0.00   355.26     0  01:58           0        2.28       0.058
  YS02001619           JUNCTION    336.52   336.52     0  02:16        2.95        2.95       0.413
  YS02001629           JUNCTION      0.00   246.95     0  01:47           0        1.45       1.998
  YS02001641           JUNCTION      0.00   432.19     0  01:52           0        4.86       0.430
  YS02001644           JUNCTION    367.62  1545.05     0  02:47        3.42          13       0.204
  YS02001652           JUNCTION      0.00   478.78     0  02:16           0        3.05       0.748
  YS02001655           JUNCTION      0.15   478.29     0  02:16     0.00434        3.07       0.817
  YS02001920           JUNCTION      2.87   355.19     0  01:58      0.0809        2.27       0.131
  YS02001923           JUNCTION      0.04   298.35     0  01:58     0.00106        2.17       0.038
  YS02001926           JUNCTION      0.05   345.14     0  01:56     0.00147        2.14       0.145
  YS02001929           JUNCTION    185.81   197.55     0  01:56        2.12        2.13       0.032
  YS02001658           JUNCTION      0.00   507.72     0  02:08           0        3.09       0.753
  YS02001661           JUNCTION      0.00   771.28     0  02:03           0        3.63       0.033
  YS02001664           JUNCTION    437.54   437.54     0  02:16         3.1        3.64       0.183
  YS02001622           JUNCTION      0.00   337.16     0  02:16           0        2.94       1.089
  YS02001633           JUNCTION    373.18   431.96     0  01:52        3.53        4.93       0.651
  YS02001649           JUNCTION      0.00  1018.36     0  01:57           0        7.03       0.524
  YS02001757           JUNCTION      0.00  2125.03     0  02:01           0        9.93       0.934
  YS02001895           JUNCTION      0.00   518.11     0  02:25           0           4       0.123
  YS02001625           JUNCTION      0.00   336.67     0  02:16           0        2.91       1.367
  YS02163301           JUNCTION      0.00   230.06     0  01:48           0        1.45       1.669
  YS02163601           JUNCTION      0.11   432.17     0  01:52      0.0031        4.88       0.615
  YS02164001           JUNCTION      0.00   432.15     0  01:52           0        4.86       0.409
  YS02001647           JUNCTION      0.00   822.65     0  02:47           0        6.15       0.462
  YSB1154              JUNCTION     43.61    43.61     0  01:53       0.163       0.164       0.888
  YSB6556              JUNCTION      0.00    43.64     0  01:53           0       0.165       0.764
  YSB1174              JUNCTION     35.87    35.87     0  01:50        0.12        0.12       1.078
  YSB1171              JUNCTION      0.00    78.02     0  01:52           0       0.291       2.225
  YS02006553           JUNCTION      0.00   682.61     0  03:22           0        7.12       0.214
  YS02006561           JUNCTION      0.00   968.86     0  02:13           0        10.9       0.005
  YS02006556           JUNCTION      0.00   682.67     0  03:22           0        7.13       0.151
  YS02006558           JUNCTION    522.52   969.49     0  02:13        3.81        10.9       0.048
  YS02001783           JUNCTION      0.00   968.91     0  02:16           0        10.9       0.023
  YS02001784           JUNCTION      1.06   969.76     0  02:15      0.0299        10.9       0.035
  YS02001786           JUNCTION      0.06   969.65     0  02:13     0.00159        10.9       0.031
  YS02001788           JUNCTION      0.07   969.68     0  02:13       0.002        10.9       0.017
  YS02001790           JUNCTION      0.15   969.98     0  02:15     0.00437        10.9       0.023
  YS02001791           JUNCTION      0.00   970.07     0  02:13           0        10.9       0.008
  YS02001793           JUNCTION      0.00   970.21     0  02:13           0        10.9       0.097
  WS02004139           JUNCTION      0.32   379.64     0  01:50     0.00905        7.04       0.465
  WSC                  OUTFALL       0.00  1099.52     0  02:02           0        15.3       0.000
  3                    OUTFALL       0.00   496.56     0  04:30           0        3.07       0.000
  4                    OUTFALL       0.00    95.36     0  04:20           0       0.164       0.000
  5                    OUTFALL       0.00     0.00     0  00:00           0           0       0.000 ltr
  JK-storage           STORAGE       0.00   970.45     0  02:13           0          11      -4.516
  CC-storage           STORAGE       0.00  2124.89     0  02:01           0        7.22       0.910
  XR-storage           STORAGE     844.69   844.69     0  03:01        12.1        12.7      -0.003
  
  
  **********************
  Node Surcharge Summary
  **********************
  
  Surcharging occurs when water rises above the top of the highest conduit.
  ---------------------------------------------------------------------
                                               Max. Height   Min. Depth
                                   Hours       Above Crown    Below Rim
  Node                 Type      Surcharged         Meters       Meters
  ---------------------------------------------------------------------
  WS02004401           JUNCTION        0.36          0.085        1.575
  WS02004402           JUNCTION        0.40          0.089        1.651
  WS02004403           JUNCTION        0.41          0.082        1.948
  WS02004404           JUNCTION        0.57          0.136        2.644
  WS02004406           JUNCTION        0.52          0.091        2.359
  WS02004405           JUNCTION        0.54          0.118        2.682
  WS02006109           JUNCTION        1.74          0.397        1.423
  WS02006110           JUNCTION        0.66          0.169        1.681
  WS02006112           JUNCTION        0.73          0.352        1.328
  WS02006115           JUNCTION        0.12          0.021        2.229
  WS02006116           JUNCTION        0.17          0.031        2.259
  WS02006230           JUNCTION        0.50          0.231        1.339
  WS02006231           JUNCTION        0.50          0.237        1.293
  WS02006232           JUNCTION        1.82          0.333        1.147
  WS02006234           JUNCTION        0.45          0.197        1.043
  WS02006235           JUNCTION        0.95          0.214        1.076
  WS02006238           JUNCTION        1.32          0.226        1.204
  WS02006240           JUNCTION        0.25          0.102        1.288
  WS02006242           JUNCTION        0.70          0.109        0.711
  WS02006239           JUNCTION        0.35          0.148        1.142
  WS02006252           JUNCTION        1.44          0.193        0.907
  WS02006228           JUNCTION        1.62          0.495        1.705
  YS02001748           JUNCTION        5.98          0.309        0.881
  YS02001751           JUNCTION        6.02          0.716        0.484
  YS02001754           JUNCTION        6.05          0.796        0.354
  YS02001762           JUNCTION        6.09          1.043        0.107
  YS02001765           JUNCTION        6.08          0.989        0.111
  YS02001767           JUNCTION        6.07          0.944        0.086
  YS02001770           JUNCTION        6.07          0.899        0.021
  YS02001774           JUNCTION        6.08          0.983        0.067
  YS02001779           JUNCTION        6.04          0.680        0.000
  YS02001882           JUNCTION        1.77          0.830        0.000
  YS02001884           JUNCTION        1.80          0.847        0.023
  YS02001759           JUNCTION        6.09          1.084        0.126
  YS02001887           JUNCTION        1.88          0.856        0.094
  YS02001890           JUNCTION        1.91          0.760        0.000
  YS02001898           JUNCTION        1.73          0.590        0.150
  YS02001901           JUNCTION        1.84          0.731        0.139
  YS02001904           JUNCTION        1.82          0.697        0.153
  YS02001907           JUNCTION        2.27          0.950        0.000
  YS02001910           JUNCTION        1.95          1.002        0.098
  YS02001915           JUNCTION        1.76          1.000        0.000
  YS02001918           JUNCTION        1.54          0.776        0.034
  YS02001619           JUNCTION        6.02          0.610        0.000
  YS02001629           JUNCTION        6.02          0.470        0.000
  YS02001641           JUNCTION        6.08          0.937        0.163
  YS02001644           JUNCTION        6.08          0.920        0.000
  YS02001652           JUNCTION        6.05          1.066        0.064
  YS02001655           JUNCTION        6.02          1.033        0.167
  YS02001920           JUNCTION        1.58          0.799        0.341
  YS02001923           JUNCTION        0.01          0.475        0.345
  YS02001926           JUNCTION        0.01          0.900        0.000
  YS02001658           JUNCTION        5.99          1.064        0.236
  YS02001661           JUNCTION        0.17          1.264        0.126
  YS02001622           JUNCTION        6.02          0.620        0.000
  YS02001633           JUNCTION        6.08          0.932        0.128
  YS02001649           JUNCTION        6.09          1.050        0.000
  YS02001757           JUNCTION        6.12          1.186        0.024
  YS02001895           JUNCTION        1.74          0.601        0.149
  YS02001625           JUNCTION        6.05          0.780        0.000
  YS02163301           JUNCTION        6.07          0.889        0.141
  YS02163601           JUNCTION        6.09          0.994        0.086
  YS02164001           JUNCTION        6.08          0.922        0.178
  YS02001647           JUNCTION        6.05          0.806        0.094
  YS02006553           JUNCTION        2.30          0.970        0.220
  YS02006561           JUNCTION        1.66          0.404        0.746
  YS02006556           JUNCTION        2.12          0.908        0.442
  YS02006558           JUNCTION        2.09          0.886        0.514
  YS02001783           JUNCTION        2.13          0.936        0.664
  YS02001784           JUNCTION        2.19          1.151        0.339
  YS02001786           JUNCTION        2.12          1.430        0.000
  YS02001788           JUNCTION        2.11          1.480        0.000
  YS02001790           JUNCTION        2.61          1.157        0.000
  YS02001791           JUNCTION        2.65          1.436        0.484
  YS02001793           JUNCTION        3.08          1.017        1.583
  
  
  *********************
  Node Flooding Summary
  *********************
  
  Flooding refers to all water that overflows a node, whether it ponds or not.
  --------------------------------------------------------------------------
                                                             Total   Maximum
                                 Maximum   Time of Max       Flood    Ponded
                        Hours       Rate    Occurrence      Volume     Depth
  Node                 Flooded       LPS   days hr:min    10^6 ltr    Meters
  --------------------------------------------------------------------------
  YS02001779              3.39    724.19      0  02:48       3.331     0.000
  YS02001882              0.01      7.37      0  01:54       0.000     0.000
  YS02001890              0.57     89.87      0  02:15       0.101     0.000
  YS02001907              1.40    605.84      0  01:58       2.006     0.000
  YS02001915              0.01     72.91      0  01:54       0.000     0.000
  YS02001619              0.01     77.35      0  01:47       0.000     0.000
  YS02001629              0.01    207.90      0  01:47       0.001     0.000
  YS02001644              4.82   1545.05      0  02:47      11.498     0.000
  YS02001926              0.01    201.48      0  01:57       0.000     0.000
  YS02001622              0.01     81.08      0  01:47       0.000     0.000
  YS02001649              0.02     32.49      0  02:18       0.001     0.000
  YS02001625              2.00    325.71      0  02:15       1.437     0.000
  YS02001786              0.01     72.03      0  01:53       0.000     0.000
  YS02001788              0.01    147.72      0  01:53       0.000     0.000
  YS02001790              0.01    177.39      0  01:53       0.000     0.000
  JK-storage              2.52    970.10      0  02:13       6.910     0.000
  XR-storage              4.35    559.64      0  03:01       4.743     0.000
  
  
  **********************
  Storage Volume Summary
  **********************
  
  --------------------------------------------------------------------------------------------------
                         Average     Avg  Evap Exfil       Maximum     Max    Time of Max    Maximum
                          Volume    Pcnt  Pcnt  Pcnt        Volume    Pcnt     Occurrence    Outflow
  Storage Unit           1000 m3    Full  Loss  Loss       1000 m3    Full    days hr:min        LPS
  --------------------------------------------------------------------------------------------------
  JK-storage               0.161      55     0     0         0.291     100       0  01:53     600.00
  CC-storage               3.310      21     0     0         4.036      26       0  02:44     400.00
  XR-storage               0.844      91     0     0         0.926     100       0  02:13     379.95
  
  
  ***********************
  Outfall Loading Summary
  ***********************
  
  -----------------------------------------------------------
                         Flow       Avg       Max       Total
                         Freq      Flow      Flow      Volume
  Outfall Node           Pcnt       LPS       LPS    10^6 ltr
  -----------------------------------------------------------
  WSC                  100.00    585.98   1099.52      15.312
  3                     68.82    251.38    496.56       3.075
  4                     26.73     30.82     95.36       0.164
  5                      0.00      0.00      0.00       0.000
  -----------------------------------------------------------
  System                48.89    868.18   1227.82      18.551
  
  
  ********************
  Link Flow Summary
  ********************
  
  -----------------------------------------------------------------------------
                                 Maximum  Time of Max   Maximum    Max/    Max/
                                  |Flow|   Occurrence   |Veloc|    Full    Full
  Link                 Type          LPS  days hr:min     m/sec    Flow   Depth
  -----------------------------------------------------------------------------
  WS02003066WSF200     CONDUIT    777.77     0  02:00      2.89    0.13    0.29
  WS02006287WS02006284 CONDUIT    655.87     0  01:55      2.36    0.30    0.38
  WS02006284WS02006280 CONDUIT    656.05     0  01:55      2.59    0.27    0.36
  WS02006280WS02006229 CONDUIT    656.06     0  01:55      4.21    0.14    0.25
  WS02006229WS02006228 CONDUIT    754.81     0  01:56      1.50    2.50    1.00
  WS02006256WS02006235 CONDUIT    158.11     0  01:13      2.30    1.67    1.00
  WS02006253WS02006251 CONDUIT    144.15     0  01:56      0.74    0.43    0.89
  WS02006252WS02006251 CONDUIT    400.63     0  04:12      3.19    1.47    1.00
  WS02006251WS02006249 CONDUIT    402.84     0  04:11      1.17    1.16    0.87
  WS02006249WS02006248 CONDUIT    353.24     0  03:40      1.17    1.94    0.83
  WS02006248WS02006247 CONDUIT    347.38     0  03:40      1.13    0.76    0.86
  WS02006247WS02006245 CONDUIT    345.18     0  04:11      1.10    2.74    0.90
  WS02006245WS02006243 CONDUIT    342.44     0  04:11      1.12    1.01    0.94
  WS02006243WS02006242 CONDUIT    337.79     0  04:11      0.98    0.72    0.99
  WS02006242WS02006240 CONDUIT    330.50     0  04:10      0.94    1.31    1.00
  WS02006240WS02006239 CONDUIT    322.07     0  04:10      0.98    1.01    1.00
  WS02006239WS02006238 CONDUIT    315.64     0  04:11      0.91    1.01    1.00
  WS02006238WS02006235 CONDUIT    314.64     0  04:11      0.91    0.70    1.00
  WS02006235WS02006234 CONDUIT    387.59     0  04:41      1.05    4.09    1.00
  WS02006234WS02006232 CONDUIT    387.00     0  04:42      1.02    0.78    1.00
  WS02006232WS02006231 CONDUIT    386.97     0  04:42      1.06    0.81    1.00
  WS02006231WS02006230 CONDUIT    386.30     0  04:42      1.37    5.86    1.00
  WS02006230WS02006229 CONDUIT    396.36     0  04:43      1.03    8.82    1.00
  WS02006228WS02006109 CONDUIT    754.73     0  01:56      1.50    3.30    1.00
  WS02006116WS02004401 CONDUIT    779.64     0  01:57      0.99    1.07    1.00
  WS02006115WS02006116 CONDUIT    779.72     0  01:57      0.99    1.00    1.00
  WS02006113WS02006111 CONDUIT    754.83     0  01:57      2.61    0.90    0.71
  WS02006112WS02006115 CONDUIT    779.71     0  01:57      0.99    0.46    1.00
  WS02006111WS02006112 CONDUIT    755.84     0  01:58      1.72    0.36    0.84
  WS02006110WS02006113 CONDUIT    755.88     0  01:56      1.66    0.69    0.86
  WS02006109WS02006110 CONDUIT    755.97     0  01:56      1.50    1.45    1.00
  WS02004411WS02004412 CONDUIT    777.59     0  01:59      1.12    1.10    0.82
  WS02004401WS02004402 CONDUIT    779.66     0  01:58      0.99    0.94    1.00
  WS02004413WS02003067 CONDUIT    777.59     0  02:00      1.37    0.33    0.68
  WS02004412WS02004413 CONDUIT    777.55     0  01:59      1.05    0.52    0.89
  WS02004410WS02004411 CONDUIT    777.80     0  01:59      1.11    1.06    0.83
  WS02004409WS02004410 CONDUIT    778.42     0  01:58      1.11    1.01    0.83
  WS02004407WS02004409 CONDUIT    779.76     0  01:58      1.62    0.28    0.60
  WS02004406WS02004407 CONDUIT    779.86     0  01:58      1.37    0.35    0.68
  WS02004405WS02004406 CONDUIT    779.82     0  01:57      0.99    1.54    1.00
  WS02004404WS02004405 CONDUIT    779.81     0  01:58      0.99    7.64    1.00
  WS02004403WS02004404 CONDUIT    779.67     0  01:58      0.99    0.56    1.00
  WS02004402WS02004403 CONDUIT    779.68     0  01:58      0.99    1.12    1.00
  WS02004139WS02001211 CONDUIT    371.60     0  01:50      0.81    0.47    0.57
  WS02004138WS02004139 CONDUIT    379.32     0  01:50      3.34    0.08    0.42
  WS02003067WS02003066 CONDUIT    777.73     0  02:00      1.48    0.25    0.47
  WS02001213WS02003059 CONDUIT    351.89     0  01:51      0.78    0.58    0.79
  WS02001212WS02001213 CONDUIT    363.20     0  01:51      1.25    0.56    0.47
  WS02001211WS02001212 CONDUIT    370.58     0  01:51      0.74    0.28    0.63
  WS02003072WS02003073 CONDUIT   1097.27     0  02:01      1.83    2.37    0.52
  WS02003069WS02003072 CONDUIT   1097.04     0  02:00      1.71    0.53    0.55
  WS02003060WS02003069 CONDUIT   1096.78     0  02:00      1.94    0.43    0.50
  WS02003059WS02003060 CONDUIT    340.96     0  06:34      0.82    0.22    0.70
  HS02004901HS02004770 CONDUIT     31.95     0  01:52      0.09    0.12    0.51
  HS02004876HS02004881 CONDUIT    126.38     0  01:55      1.20    1.34    0.15
  HS02004870HS02004876 CONDUIT    102.10     0  01:55      0.82    0.07    0.18
  HS02004842HS02004848 CONDUIT     15.55     0  02:06      0.07    0.01    0.33
  HS02004837HS02004842 CONDUIT     15.96     0  02:07      0.42    0.01    0.35
  HS02004830HS02004837 CONDUIT     62.46     0  01:55      0.66    0.06    0.14
  HS02004824HS02004830 CONDUIT     62.57     0  01:56      0.62    0.08    0.16
  HS02004817HS02004824 CONDUIT    123.43     0  01:59      0.31    0.06    0.58
  HS02004770HS02004777 CONDUIT    165.77     0  01:51      0.46    0.30    0.52
  HS02004799HS02004480 CONDUIT    414.30     0  01:53      1.02    0.52    0.58
  HS02004792HS02004799 CONDUIT    377.20     0  01:52      1.15    0.23    0.47
  HS02004788HS02004792 CONDUIT    218.44     0  01:53      1.24    0.14    0.25
  HS02004785HS02004788 CONDUIT    165.54     0  01:53      0.86    1.25    0.27
  HS02004777HS02004785 CONDUIT    165.44     0  01:52      0.54    0.20    0.44
  HS02004480HS02004478 CONDUIT    492.13     0  01:53      1.52    2.07    0.46
  HS02004479HS02004480 CONDUIT     78.30     0  01:54      0.27    0.08    0.55
  HS02004862HS02004870 CONDUIT     77.52     0  01:55      0.79    0.08    0.14
  HS02004848HS02004852 CONDUIT     36.10     0  01:55      0.52    0.04    0.10
  HS02004856HS02004862 CONDUIT     54.46     0  01:55      0.59    0.05    0.13
  HS02004852HS02004856 CONDUIT     36.15     0  01:56      0.33    0.04    0.16
  HS02004802HS02004478 CONDUIT    170.22     0  01:58      0.53    0.15    0.47
  HS02004478WS02006287 CONDUIT    655.81     0  01:54      2.08    0.18    0.35
  HS02004817HS02004807 CONDUIT    125.36     0  01:59      0.24    0.07    0.75
  HS02004807HS02004802 CONDUIT    169.24     0  01:58      0.47    0.32    0.53
  YS02001759YS02001757 CONDUIT    853.83     0  02:02      1.09    0.61    1.00
  YS02001762YS02001759 CONDUIT    430.29     0  02:02      0.55    0.50    1.00
  YS02001765YS02001762 CONDUIT    430.81     0  02:02      0.55    0.40    1.00
  YS02001770YS02001767 CONDUIT    429.83     0  02:02      0.55    1.70    1.00
  YS02001774YS02001770 CONDUIT    724.14     0  02:48      0.92    0.46    1.00
  YS02001779YS02001774 CONDUIT    724.19     0  02:48      0.92    0.36    1.00
  YS02001649YS02001757 CONDUIT   1019.09     0  01:57      1.30    0.62    1.00
  YS02001767YS02001765 CONDUIT    430.30     0  02:02      0.55    0.54    1.00
  YS02006561YS02001783 CONDUIT    968.91     0  02:16      2.17    0.50    1.00
  YS02001783YS02001784 CONDUIT    968.70     0  02:15      1.93    1.34    1.00
  YS02001784YS02001785 CONDUIT    969.59     0  02:13      1.93    2.26    1.00
  YS02001788YS02001790 CONDUIT    969.83     0  02:15      2.40    0.71    1.00
  YS02001790YS02001791 CONDUIT    970.07     0  02:13      2.88    1.06    1.00
  YS02001791YS02001793 CONDUIT    970.21     0  02:13      5.75    0.42    1.00
  YS02001910YS02001907 CONDUIT    625.08     0  01:58      0.80    0.35    1.00
  YS02001786YS02001788 CONDUIT    969.61     0  02:13      2.29    1.87    1.00
  YS02001915YS02001910 CONDUIT    625.44     0  01:58      0.80    0.31    1.00
  YS02001918YS02001915 CONDUIT    355.86     0  01:58      0.46    0.20    1.00
  YS02001923YS02001920 CONDUIT    352.32     0  01:58      0.78    0.16    1.00
  YS02001926YS02001923 CONDUIT    298.31     0  01:58      0.87    0.43    1.00
  YS02001929YS02001926 CONDUIT    226.34     0  01:58      0.93    0.11    0.95
  YS02001920YS02001918 CONDUIT    355.26     0  01:58      0.75    0.34    1.00
  YS02001629YS02163301 CONDUIT    230.06     0  01:48      0.29    0.28    1.00
  YS02001619YS02001622 CONDUIT    337.16     0  02:16      0.76    0.50    1.00
  YS02001622YS02001625 CONDUIT    336.67     0  02:16      0.43    0.18    1.00
  YS02001625YS02001629 CONDUIT    211.01     0  01:47      0.31    0.10    1.00
  YS02163301YS02001633 CONDUIT    229.78     0  01:48      0.29    0.22    1.00
  YS02163601YS02164001 CONDUIT    432.15     0  01:52      0.55    0.38    1.00
  YS02164001YS02001641 CONDUIT    432.19     0  01:52      0.55    0.59    1.00
  YS02001641YS02001644 CONDUIT    432.25     0  01:52      0.55    1.40    1.00
  YS02001647YS02001649 CONDUIT    822.65     0  02:47      1.05    0.43    1.00
  YS02006553YS02006556 CONDUIT    682.67     0  03:22      0.87    0.58    1.00
  YS02006556YS02006558 CONDUIT    682.79     0  03:22      0.87    0.54    1.00
  YSB6556YSB1171       CONDUIT     43.97     0  01:54      0.13    0.05    0.82
  YS02001907YS02006553 CONDUIT    682.61     0  03:22      0.76    0.80    1.00
  YS02006558YS02006561 CONDUIT    968.86     0  02:13      3.53    2.14    1.00
  YS02001633YS02163601 CONDUIT    432.06     0  01:52      0.55    0.45    1.00
  YS02001644YS02001647 CONDUIT    822.75     0  02:47      1.05    0.48    1.00
  YS02001745YS02001748 CONDUIT    397.30     0  02:16      1.73    0.15    0.98
  YS02001748YS02001751 CONDUIT    397.40     0  02:16      1.25    0.20    1.00
  YS02001751YS02001754 CONDUIT    397.30     0  02:16      1.02    0.19    1.00
  YS02001754YS02001757 CONDUIT    396.99     0  02:16      0.51    0.16    1.00
  YS02001882YS02001884 CONDUIT     16.93     0  01:53      0.12    0.02    1.00
  YS02001884YS02001887 CONDUIT     43.69     0  01:52      0.09    0.06    1.00
  YS02001890YS02001895 CONDUIT    518.11     0  02:25      0.66    0.24    1.00
  YS02001895YS02001898 CONDUIT    518.40     0  02:21      0.66    0.90    1.00
  YS02001898YS02001901 CONDUIT    518.30     0  02:22      0.66    0.33    1.00
  YS02001901YS02001904 CONDUIT    518.07     0  02:22      0.66    0.80    1.00
  YS02001904YS02001907 CONDUIT    518.14     0  02:22      0.66    0.18    1.00
  YS02001887YS02001890 CONDUIT    606.87     0  02:15      0.77    1.04    1.00
  YS02001652YS02001649 CONDUIT    479.84     0  02:16      0.61    0.24    1.00
  YS02001655YS02001652 CONDUIT    478.78     0  02:16      1.09    0.23    1.00
  YS02001658YS02001655 CONDUIT    478.13     0  02:16      1.45    0.20    1.00
  YS02001661YS02001658 CONDUIT    507.72     0  02:08      1.85    0.20    1.00
  YS02001664YS02001661 CONDUIT    771.28     0  02:03      1.75    0.24    0.77
  YSB1154YSB6556       CONDUIT     43.64     0  01:53      0.18    0.08    0.72
  YSB1174YSB1171       CONDUIT     35.14     0  01:50      0.10    0.05    0.83
  YSB1171HS02004479    CONDUIT     78.00     0  01:53      0.54    0.05    0.67
  HS02004881HS02006253 CONDUIT    139.58     0  01:55      2.69    0.03    0.22
  YS02001793JiankangQianchi CONDUIT    970.45     0  02:13     11.87    0.08    1.00
  YS02001757CaochengTiaoxuchi CONDUIT   2124.89     0  02:01      3.63    0.93    1.00
  WSF200WS02003060     CONDUIT    777.84     0  02:00      1.86    0.17    0.40
  1                    CONDUIT   1099.52     0  02:02      3.41    0.38    0.43
  2                    CONDUIT     95.36     0  04:20      4.78    0.23    0.33
  3                    CONDUIT    496.56     0  04:30      9.79    0.79    0.68
  4                    CONDUIT      0.00     0  00:00      0.00    0.00    0.00
  CC-Pump-1            PUMP       200.00     0  04:00              1.00
  CC-Pump-2            PUMP       200.00     0  04:10              1.00
  JK-Pump-1            PUMP       300.00     0  04:50              1.00
  JK-Pump-2            PUMP       300.00     0  03:40              1.00
  XR-Pump-1            PUMP        95.00     0  00:00              1.00
  XR-Pump-2            PUMP        95.00     0  00:00              1.00
  XR-Pump-3            PUMP        95.00     0  00:00              1.00
  XR-Pump-4            PUMP        95.00     0  04:20              1.00
  
  
  ***************************
  Flow Classification Summary
  ***************************
  
  -------------------------------------------------------------------------------------
                      Adjusted    ---------- Fraction of Time in Flow Class ---------- 
                       /Actual         Up    Down  Sub   Sup   Up    Down  Norm  Inlet 
  Conduit               Length    Dry  Dry   Dry   Crit  Crit  Crit  Crit  Ltd   Ctrl  
  -------------------------------------------------------------------------------------
  WS02003066WSF200        1.00   0.07  0.00  0.00  0.00  0.93  0.00  0.00  0.67  0.00
  WS02006287WS02006284    1.00   0.02  0.03  0.00  0.67  0.28  0.00  0.00  0.65  0.00
  WS02006284WS02006280    1.00   0.03  0.00  0.00  0.00  0.00  0.00  0.97  0.00  0.00
  WS02006280WS02006229    1.00   0.03  0.00  0.00  0.00  0.00  0.00  0.97  0.00  0.00
  WS02006229WS02006228    1.00   0.00  0.00  0.00  1.00  0.00  0.00  0.00  0.00  0.00
  WS02006256WS02006235    1.00   0.03  0.00  0.00  0.97  0.00  0.00  0.00  0.00  0.00
  WS02006253WS02006251    1.00   0.01  0.01  0.00  0.97  0.00  0.01  0.00  0.00  0.00
  WS02006252WS02006251    1.00   0.06  0.00  0.00  0.00  0.00  0.94  0.00  0.00  0.00
  WS02006251WS02006249    1.00   0.00  0.00  0.00  1.00  0.00  0.00  0.00  0.22  0.00
  WS02006249WS02006248    1.00   0.00  0.00  0.00  0.91  0.00  0.09  0.00  0.00  0.00
  WS02006248WS02006247    1.00   0.00  0.00  0.00  0.99  0.00  0.00  0.01  0.12  0.00
  WS02006247WS02006245    1.00   0.00  0.00  0.00  0.97  0.00  0.00  0.02  0.00  0.00
  WS02006245WS02006243    1.00   0.01  0.00  0.00  0.95  0.00  0.00  0.05  0.01  0.00
  WS02006243WS02006242    1.00   0.01  0.00  0.00  0.97  0.00  0.00  0.02  0.16  0.00
  WS02006242WS02006240    1.00   0.01  0.02  0.00  0.97  0.00  0.00  0.00  0.00  0.00
  WS02006240WS02006239    1.00   0.03  0.00  0.00  0.97  0.00  0.00  0.00  0.01  0.00
  WS02006239WS02006238    1.00   0.03  0.00  0.00  0.97  0.00  0.00  0.00  0.00  0.00
  WS02006238WS02006235    1.00   0.03  0.00  0.00  0.97  0.00  0.00  0.00  0.00  0.00
  WS02006235WS02006234    1.00   0.03  0.00  0.00  0.97  0.00  0.01  0.00  0.00  0.00
  WS02006234WS02006232    1.00   0.03  0.00  0.00  0.97  0.00  0.00  0.00  0.00  0.00
  WS02006232WS02006231    1.00   0.03  0.00  0.00  0.97  0.00  0.00  0.00  0.00  0.00
  WS02006231WS02006230    1.00   0.03  0.00  0.00  0.56  0.00  0.41  0.00  0.00  0.00
  WS02006230WS02006229    1.00   0.00  0.00  0.00  0.99  0.00  0.00  0.01  0.00  0.00
  WS02006228WS02006109    1.00   0.00  0.00  0.00  1.00  0.00  0.00  0.00  0.01  0.00
  WS02006116WS02004401    1.00   0.02  0.00  0.00  0.98  0.00  0.00  0.00  0.00  0.00
  WS02006115WS02006116    1.00   0.02  0.00  0.00  0.95  0.00  0.00  0.03  0.00  0.00
  WS02006113WS02006111    1.00   0.01  0.00  0.00  0.03  0.96  0.00  0.00  0.17  0.00
  WS02006112WS02006115    1.00   0.01  0.01  0.00  0.98  0.00  0.00  0.00  0.00  0.00
  WS02006111WS02006112    1.00   0.01  0.00  0.00  0.98  0.00  0.00  0.00  0.85  0.00
  WS02006110WS02006113    1.00   0.00  0.01  0.00  0.99  0.00  0.00  0.00  0.00  0.00
  WS02006109WS02006110    1.00   0.00  0.00  0.00  1.00  0.00  0.00  0.00  0.00  0.00
  WS02004411WS02004412    1.00   0.06  0.00  0.00  0.94  0.00  0.00  0.00  0.00  0.00
  WS02004401WS02004402    1.00   0.02  0.00  0.00  0.98  0.00  0.00  0.00  0.03  0.00
  WS02004413WS02003067    1.00   0.06  0.01  0.00  0.00  0.00  0.93  0.00  0.00  0.00
  WS02004412WS02004413    1.00   0.06  0.00  0.00  0.94  0.00  0.00  0.00  0.00  0.00
  WS02004410WS02004411    1.00   0.06  0.00  0.00  0.94  0.00  0.00  0.00  0.00  0.00
  WS02004409WS02004410    1.00   0.06  0.00  0.00  0.94  0.00  0.00  0.00  0.00  0.00
  WS02004407WS02004409    1.00   0.06  0.00  0.00  0.94  0.01  0.00  0.00  0.80  0.00
  WS02004406WS02004407    1.00   0.00  0.06  0.00  0.94  0.00  0.00  0.00  0.00  0.00
  WS02004405WS02004406    1.00   0.00  0.00  0.00  1.00  0.00  0.00  0.00  0.04  0.00
  WS02004404WS02004405    1.00   0.00  0.00  0.00  1.00  0.00  0.00  0.00  0.00  0.00
  WS02004403WS02004404    1.00   0.00  0.02  0.00  0.98  0.00  0.00  0.00  0.04  0.00
  WS02004402WS02004403    1.00   0.02  0.00  0.00  0.98  0.00  0.00  0.00  0.00  0.00
  WS02004139WS02001211    1.00   0.00  0.00  0.00  1.00  0.00  0.00  0.00  0.00  0.00
  WS02004138WS02004139    1.00   0.00  0.00  0.00  1.00  0.00  0.00  0.00  1.00  0.00
  WS02003067WS02003066    1.00   0.07  0.00  0.00  0.93  0.00  0.00  0.00  0.00  0.00
  WS02001213WS02003059    1.00   0.00  0.00  0.00  1.00  0.00  0.00  0.00  0.00  0.00
  WS02001212WS02001213    1.00   0.00  0.00  0.00  0.80  0.00  0.20  0.00  0.00  0.00
  WS02001211WS02001212    1.00   0.00  0.00  0.00  1.00  0.00  0.00  0.00  0.00  0.00
  WS02003072WS02003073    1.00   0.00  0.00  0.00  0.00  0.00  0.00  1.00  0.00  0.00
  WS02003069WS02003072    1.00   0.00  0.00  0.00  1.00  0.00  0.00  0.00  0.25  0.00
  WS02003060WS02003069    1.00   0.00  0.00  0.00  0.99  0.01  0.00  0.00  0.07  0.00
  WS02003059WS02003060    1.00   0.00  0.00  0.00  1.00  0.00  0.00  0.00  0.01  0.00
  HS02004901HS02004770    1.00   0.02  0.00  0.00  0.98  0.00  0.00  0.00  0.00  0.00
  HS02004876HS02004881    1.00   0.00  0.00  0.00  0.90  0.10  0.00  0.00  0.00  0.00
  HS02004870HS02004876    1.00   0.00  0.00  0.00  1.00  0.00  0.00  0.00  0.95  0.00
  HS02004842HS02004848    1.00   0.00  0.02  0.00  0.98  0.00  0.00  0.00  0.57  0.00
  HS02004837HS02004842    1.00   0.00  0.00  0.00  1.00  0.00  0.00  0.00  0.11  0.00
  HS02004830HS02004837    1.00   0.00  0.00  0.00  1.00  0.00  0.00  0.00  0.99  0.00
  HS02004824HS02004830    1.00   0.00  0.00  0.00  1.00  0.00  0.00  0.00  0.03  0.00
  HS02004817HS02004824    1.00   0.00  0.00  0.00  1.00  0.00  0.00  0.00  0.94  0.00
  HS02004770HS02004777    1.00   0.00  0.02  0.00  0.98  0.00  0.00  0.00  0.03  0.00
  HS02004799HS02004480    1.00   0.00  0.01  0.00  0.96  0.00  0.03  0.00  0.00  0.00
  HS02004792HS02004799    1.00   0.00  0.00  0.00  1.00  0.00  0.00  0.00  0.98  0.00
  HS02004788HS02004792    1.00   0.00  0.00  0.00  1.00  0.00  0.00  0.00  0.98  0.00
  HS02004785HS02004788    1.00   0.00  0.00  0.00  1.00  0.00  0.00  0.00  0.00  0.00
  HS02004777HS02004785    1.00   0.00  0.00  0.00  1.00  0.00  0.00  0.00  0.13  0.00
  HS02004480HS02004478    1.00   0.03  0.00  0.00  0.75  0.00  0.00  0.23  0.00  0.00
  HS02004479HS02004480    1.00   0.01  0.00  0.00  0.99  0.00  0.00  0.00  0.12  0.00
  HS02004862HS02004870    1.00   0.00  0.00  0.00  1.00  0.00  0.00  0.00  0.04  0.00
  HS02004848HS02004852    1.00   0.02  0.00  0.00  0.98  0.00  0.00  0.00  0.78  0.00
  HS02004856HS02004862    1.00   0.00  0.05  0.00  0.95  0.00  0.00  0.00  0.82  0.00
  HS02004852HS02004856    1.00   0.02  0.00  0.00  0.97  0.00  0.00  0.00  0.77  0.00
  HS02004802HS02004478    1.00   0.03  0.00  0.00  0.97  0.00  0.00  0.00  0.03  0.00
  HS02004478WS02006287    1.00   0.05  0.00  0.00  0.80  0.16  0.00  0.00  0.62  0.00
  HS02004817HS02004807    1.00   0.00  0.02  0.00  0.98  0.00  0.00  0.00  0.01  0.00
  HS02004807HS02004802    1.00   0.02  0.00  0.00  0.97  0.00  0.00  0.00  0.00  0.00
  YS02001759YS02001757    1.00   0.00  0.00  0.00  1.00  0.00  0.00  0.00  0.16  0.00
  YS02001762YS02001759    1.00   0.00  0.00  0.00  1.00  0.00  0.00  0.00  0.03  0.00
  YS02001765YS02001762    1.00   0.00  0.00  0.00  1.00  0.00  0.00  0.00  0.14  0.00
  YS02001770YS02001767    1.00   0.00  0.00  0.00  1.00  0.00  0.00  0.00  0.00  0.00
  YS02001774YS02001770    1.00   0.00  0.03  0.00  0.97  0.00  0.00  0.00  0.03  0.00
  YS02001779YS02001774    1.00   0.00  0.00  0.00  1.00  0.00  0.00  0.00  0.18  0.00
  YS02001649YS02001757    1.00   0.00  0.00  0.00  1.00  0.00  0.00  0.00  0.16  0.00
  YS02001767YS02001765    1.00   0.00  0.00  0.00  1.00  0.00  0.00  0.00  0.00  0.00
  YS02006561YS02001783    1.00   0.05  0.00  0.00  0.34  0.60  0.00  0.00  0.48  0.00
  YS02001783YS02001784    1.00   0.00  0.05  0.00  0.95  0.00  0.00  0.00  0.00  0.00
  YS02001784YS02001785    1.00   0.00  0.00  0.00  1.00  0.00  0.00  0.00  0.17  0.00
  YS02001788YS02001790    1.00   0.00  0.00  0.00  0.46  0.54  0.00  0.00  0.46  0.00
  YS02001790YS02001791    1.00   0.00  0.00  0.00  0.42  0.58  0.00  0.00  0.39  0.00
  YS02001791YS02001793    1.00   0.00  0.00  0.00  0.44  0.56  0.00  0.00  0.03  0.00
  YS02001910YS02001907    1.00   0.00  0.00  0.00  0.99  0.00  0.00  0.00  0.12  0.00
  YS02001786YS02001788    1.00   0.00  0.00  0.00  0.39  0.61  0.00  0.00  0.00  0.00
  YS02001915YS02001910    1.00   0.00  0.00  0.00  0.99  0.01  0.00  0.00  0.16  0.00
  YS02001918YS02001915    1.00   0.00  0.00  0.00  1.00  0.00  0.00  0.00  0.52  0.00
  YS02001923YS02001920    1.00   0.00  0.00  0.00  1.00  0.00  0.00  0.00  0.74  0.00
  YS02001926YS02001923    1.00   0.00  0.01  0.00  0.18  0.00  0.80  0.00  0.00  0.00
  YS02001929YS02001926    1.00   0.00  0.02  0.00  0.98  0.00  0.00  0.00  0.66  0.00
  YS02001920YS02001918    1.00   0.00  0.00  0.00  1.00  0.00  0.00  0.00  0.00  0.00
  YS02001629YS02163301    1.00   0.03  0.02  0.00  0.95  0.00  0.00  0.00  0.00  0.00
  YS02001619YS02001622    1.00   0.02  0.00  0.00  0.98  0.00  0.00  0.00  0.00  0.00
  YS02001622YS02001625    1.00   0.02  0.00  0.00  0.98  0.00  0.00  0.00  0.05  0.00
  YS02001625YS02001629    1.00   0.02  0.03  0.00  0.93  0.00  0.01  0.00  0.00  0.00
  YS02163301YS02001633    1.00   0.00  0.03  0.00  0.97  0.00  0.00  0.00  0.00  0.00
  YS02163601YS02164001    1.00   0.00  0.02  0.00  0.98  0.00  0.00  0.00  0.00  0.00
  YS02164001YS02001641    1.00   0.00  0.01  0.00  0.98  0.00  0.00  0.00  0.06  0.00
  YS02001641YS02001644    1.00   0.00  0.00  0.00  1.00  0.00  0.00  0.00  0.00  0.00
  YS02001647YS02001649    1.00   0.00  0.05  0.00  0.95  0.00  0.00  0.00  0.01  0.00
  YS02006553YS02006556    1.00   0.00  0.00  0.00  1.00  0.00  0.00  0.00  0.03  0.00
  YS02006556YS02006558    1.00   0.00  0.00  0.00  1.00  0.00  0.00  0.00  0.00  0.00
  YSB6556YSB1171          1.00   0.01  0.02  0.00  0.98  0.00  0.00  0.00  0.00  0.00
  YS02001907YS02006553    1.00   0.00  0.00  0.00  1.00  0.00  0.00  0.00  0.00  0.00
  YS02006558YS02006561    1.00   0.05  0.00  0.00  0.22  0.73  0.00  0.00  0.42  0.00
  YS02001633YS02163601    1.00   0.00  0.00  0.00  1.00  0.00  0.00  0.00  0.15  0.00
  YS02001644YS02001647    1.00   0.00  0.05  0.00  0.95  0.00  0.00  0.00  0.00  0.00
  YS02001745YS02001748    1.00   0.00  0.00  0.00  0.93  0.00  0.00  0.07  0.01  0.00
  YS02001748YS02001751    1.00   0.00  0.00  0.00  0.96  0.04  0.00  0.00  0.14  0.00
  YS02001751YS02001754    1.00   0.00  0.00  0.00  0.94  0.00  0.00  0.06  0.01  0.00
  YS02001754YS02001757    1.00   0.00  0.00  0.00  1.00  0.00  0.00  0.00  0.18  0.00
  YS02001882YS02001884    1.00   0.03  0.01  0.00  0.96  0.00  0.00  0.00  0.00  0.00
  YS02001884YS02001887    1.00   0.01  0.01  0.00  0.98  0.00  0.00  0.00  0.00  0.00
  YS02001890YS02001895    1.00   0.00  0.05  0.00  0.95  0.00  0.00  0.00  0.00  0.00
  YS02001895YS02001898    1.00   0.05  0.00  0.00  0.94  0.00  0.01  0.00  0.00  0.00
  YS02001898YS02001901    1.00   0.05  0.00  0.00  0.95  0.00  0.00  0.00  0.01  0.00
  YS02001901YS02001904    1.00   0.05  0.00  0.00  0.95  0.00  0.00  0.00  0.00  0.00
  YS02001904YS02001907    1.00   0.00  0.05  0.00  0.95  0.00  0.00  0.00  0.00  0.00
  YS02001887YS02001890    1.00   0.00  0.00  0.00  0.99  0.00  0.01  0.00  0.00  0.00
  YS02001652YS02001649    1.00   0.00  0.00  0.00  0.99  0.01  0.00  0.00  0.16  0.00
  YS02001655YS02001652    1.00   0.00  0.00  0.00  0.94  0.00  0.00  0.06  0.01  0.00
  YS02001658YS02001655    1.00   0.00  0.03  0.00  0.93  0.04  0.00  0.00  0.01  0.00
  YS02001661YS02001658    1.00   0.03  0.00  0.00  0.92  0.05  0.00  0.00  0.00  0.00
  YS02001664YS02001661    1.00   0.02  0.00  0.00  0.95  0.02  0.00  0.00  0.11  0.00
  YSB1154YSB6556          1.00   0.02  0.00  0.00  0.98  0.00  0.00  0.00  0.02  0.00
  YSB1174YSB1171          1.00   0.01  0.01  0.00  0.98  0.00  0.00  0.00  0.00  0.00
  YSB1171HS02004479       1.00   0.01  0.00  0.00  0.99  0.00  0.00  0.00  0.11  0.00
  HS02004881HS02006253    1.00   0.01  0.00  0.00  0.61  0.06  0.00  0.32  0.46  0.00
  YS02001793JiankangQianchi    1.00   0.00  0.00  0.00  0.73  0.27  0.00  0.00  0.37  0.00
  YS02001757CaochengTiaoxuchi    1.00   0.00  0.06  0.00  0.90  0.04  0.00  0.00  0.00  0.00
  WSF200WS02003060        1.00   0.00  0.07  0.00  0.83  0.10  0.00  0.00  0.24  0.00
  1                       1.00   0.00  0.00  0.00  0.00  1.00  0.00  0.00  0.41  0.00
  2                       1.00   0.73  0.00  0.00  0.00  0.27  0.00  0.00  0.06  0.00
  3                       1.00   0.31  0.00  0.00  0.00  0.69  0.00  0.00  0.21  0.00
  4                       1.00   1.00  0.00  0.00  0.00  0.00  0.00  0.00  0.00  0.00
  
  
  *************************
  Conduit Surcharge Summary
  *************************
  
  ----------------------------------------------------------------------------
                                                           Hours        Hours 
                         --------- Hours Full --------   Above Full   Capacity
  Conduit                Both Ends  Upstream  Dnstream   Normal Flow   Limited
  ----------------------------------------------------------------------------
  WS02006229WS02006228        1.62      1.88      1.62      3.60         1.62
  WS02006256WS02006235        5.37      5.37      6.65      2.40         0.01
  WS02006252WS02006251        0.62      0.62      1.44      1.23         0.01
  WS02006251WS02006249        0.01      0.01      0.01      0.59         0.01
  WS02006249WS02006248        0.01      0.01      0.01      2.84         0.01
  WS02006247WS02006245        0.01      0.01      0.01      3.63         0.01
  WS02006245WS02006243        0.01      0.01      0.01      0.03         0.01
  WS02006243WS02006242        0.01      0.01      0.70      0.01         0.01
  WS02006242WS02006240        0.25      0.25      1.14      1.43         0.01
  WS02006240WS02006239        0.27      0.27      0.35      0.03         0.01
  WS02006239WS02006238        1.11      1.11      1.32      0.03         0.01
  WS02006238WS02006235        1.16      1.16      1.64      0.01         0.01
  WS02006235WS02006234        0.45      0.45      0.95      4.97         0.05
  WS02006234WS02006232        0.49      0.49      1.82      0.01         0.01
  WS02006232WS02006231        0.50      0.50      1.82      0.01         0.01
  WS02006231WS02006230        0.50      0.50      0.51      5.34         0.04
  WS02006230WS02006229        2.74      3.19      2.74      6.27         2.66
  WS02006228WS02006109        1.74      2.35      1.74      4.94         1.74
  WS02006116WS02004401        0.34      0.34      0.36      0.26         0.25
  WS02006115WS02006116        0.16      0.16      0.17      0.01         0.03
  WS02006112WS02006115        0.12      0.12      0.73      0.01         0.01
  WS02006111WS02006112        0.01      0.01      4.01      0.01         0.01
  WS02006110WS02006113        0.01      0.01      2.13      0.01         0.01
  WS02006109WS02006110        0.66      0.66      2.35      0.67         0.01
  WS02004411WS02004412        0.01      0.01      0.01      0.31         0.01
  WS02004401WS02004402        0.36      0.36      0.40      0.01         0.01
  WS02004410WS02004411        0.01      0.01      0.01      0.23         0.01
  WS02004409WS02004410        0.01      0.01      0.01      0.06         0.01
  WS02004406WS02004407        0.01      0.01      0.52      0.01         0.01
  WS02004405WS02004406        0.52      0.54      0.52      0.70         0.51
  WS02004404WS02004405        0.54      0.57      0.54      6.22         0.54
  WS02004403WS02004404        0.41      0.41      0.57      0.01         0.01
  WS02004402WS02004403        0.40      0.40      0.41      0.33         0.31
  WS02003072WS02003073        0.01      0.01      0.01      4.90         0.01
  HS02004876HS02004881        0.01      0.01      0.01      0.49         0.01
  HS02004785HS02004788        0.01      0.01      0.01      0.35         0.01
  HS02004480HS02004478        0.01      0.01      0.01      0.79         0.01
  YS02001759YS02001757        6.09      6.09      6.12      0.01         0.01
  YS02001762YS02001759        6.09      6.09      6.09      0.01         0.01
  YS02001765YS02001762        6.08      6.08      6.09      0.01         0.01
  YS02001770YS02001767        6.07      6.07      6.07      1.01         0.66
  YS02001774YS02001770        6.07      6.07      6.08      0.01         0.01
  YS02001779YS02001774        6.04      6.04      6.08      0.01         0.01
  YS02001649YS02001757        6.09      6.09      6.12      0.01         0.01
  YS02001767YS02001765        6.07      6.07      6.08      0.01         0.01
  YS02006561YS02001783        1.66      1.66      2.13      0.01         0.01
  YS02001783YS02001784        2.12      2.13      2.19      2.03         1.94
  YS02001784YS02001785        2.12      2.19      2.12      2.80         2.12
  YS02001788YS02001790        2.11      2.11      2.61      0.01         0.01
  YS02001790YS02001791        2.61      2.61      2.65      1.50         1.50
  YS02001791YS02001793        2.65      2.65      3.13      0.01         0.01
  YS02001910YS02001907        1.95      1.95      2.27      0.01         0.01
  YS02001786YS02001788        2.11      2.12      2.11      2.38         2.10
  YS02001915YS02001910        1.76      1.76      1.95      0.01         0.01
  YS02001918YS02001915        1.54      1.54      1.76      0.01         0.01
  YS02001923YS02001920        1.35      1.35      1.58      0.01         0.01
  YS02001926YS02001923        0.01      0.01      0.01      0.01         0.01
  YS02001929YS02001926        0.01      0.01      0.01      0.01         0.01
  YS02001920YS02001918        1.54      1.54      1.58      0.01         0.01
  YS02001629YS02163301        6.06      6.06      6.07      0.01         0.01
  YS02001619YS02001622        6.02      6.02      6.02      0.01         0.01
  YS02001622YS02001625        6.02      6.02      6.05      0.01         0.01
  YS02001625YS02001629        6.02      6.02      6.05      0.01         0.01
  YS02163301YS02001633        6.07      6.07      6.08      0.01         0.01
  YS02163601YS02164001        6.08      6.08      6.09      0.01         0.01
  YS02164001YS02001641        6.08      6.08      6.08      0.01         0.02
  YS02001641YS02001644        6.08      6.08      6.08      2.21         2.37
  YS02001647YS02001649        6.05      6.05      6.09      0.01         0.01
  YS02006553YS02006556        2.12      2.12      2.30      0.01         0.01
  YS02006556YS02006558        2.18      2.18      2.37      0.01         0.01
  YSB6556YSB1171              0.01      0.01      0.14      0.01         0.01
  YS02001907YS02006553        2.75      2.75      2.95      0.01         0.01
  YS02006558YS02006561        1.83      2.09      1.83      2.63         1.83
  YS02001633YS02163601        6.08      6.08      6.09      0.01         0.01
  YS02001644YS02001647        6.05      6.05      6.08      0.01         0.01
  YS02001745YS02001748        0.01      0.01      5.98      0.01         0.01
  YS02001748YS02001751        6.00      6.00      6.01      0.01         0.01
  YS02001751YS02001754        6.01      6.01      6.05      0.01         0.01
  YS02001754YS02001757        6.05      6.05      6.12      0.01         0.01
  YS02001882YS02001884        1.77      1.77      1.80      0.01         0.01
  YS02001884YS02001887        1.85      1.85      1.88      0.01         0.01
  YS02001890YS02001895        1.74      1.74      1.97      0.01         0.01
  YS02001895YS02001898        1.73      1.73      1.74      0.01         0.01
  YS02001898YS02001901        1.75      1.75      1.84      0.01         0.01
  YS02001901YS02001904        1.82      1.82      1.84      0.01         0.01
  YS02001904YS02001907        1.82      1.82      2.33      0.01         0.01
  YS02001887YS02001890        1.91      1.91      1.93      0.20         0.01
  YS02001652YS02001649        6.06      6.06      6.09      0.01         0.01
  YS02001655YS02001652        6.02      6.02      6.05      0.01         0.01
  YS02001658YS02001655        5.99      5.99      6.02      0.01         0.01
  YS02001661YS02001658        0.15      0.15      5.99      0.01         0.01
  YS02001664YS02001661        0.01      0.01      1.66      0.01         0.01
  YS02001793JiankangQianchi        3.08      3.08      5.98      0.01         0.01
  YS02001757CaochengTiaoxuchi        5.65      5.65      6.12      0.01         0.01
  
  
  ***************
  Pumping Summary
  ***************
  
  ---------------------------------------------------------------------------------------------------------
                                                  Min       Avg       Max     Total     Power    % Time Off
                        Percent   Number of      Flow      Flow      Flow    Volume     Usage    Pump Curve
  Pump                 Utilized   Start-Ups       LPS       LPS       LPS  10^6 ltr     Kw-hr    Low   High
  ---------------------------------------------------------------------------------------------------------
  CC-Pump-1               44.67           3      0.00    134.54    200.00     1.680      1.58    0.0    0.0
  CC-Pump-2               45.23           7      0.00    127.28    200.00     1.562      1.45    0.0    1.2
  JK-Pump-1               42.54           5      0.00    159.37    300.00     1.739     22.45    0.0    0.0
  JK-Pump-2               51.05           5      0.00    205.66    300.00     2.672     29.28    0.0    0.0
  XR-Pump-1               93.61           4      0.00     75.58     95.00     2.137     19.29    0.0    0.0
  XR-Pump-2               93.61           5      0.00     75.56     95.00     2.024     16.99    0.0    0.0
  XR-Pump-3               87.22           8      0.00     66.00     95.00     1.824     16.84    0.0    0.0
  XR-Pump-4               61.69           6      0.00     62.64     95.00     1.054      7.64    0.0    0.0
  

  Analysis begun on:  Wed Dec 22 09:30:46 2021
  Analysis ended on:  Wed Dec 22 09:30:49 2021
  Total elapsed time: 00:00:03