
  EPA STORM WATER MANAGEMENT MODEL - VERSION 5.1 (Build 5.3.0.dev0)
  --------------------------------------------------------------

  WARNING 04: minimum elevation drop used for Conduit WS02004404WS02004405
  WARNING 03: negative offset ignored for Link YS02001904YS02001907
  
  *********************************************************
  NOTE: The summary statistics displayed in this report are
  based on results found at every computational time step,  
  not just on results from each reporting time step.
  *********************************************************
  
  ****************
  Analysis Options
  ****************
  Flow Units ............... LPS
  Process Models:
    Rainfall/Runoff ........ YES
    RDII ................... NO
    Snowmelt ............... NO
    Groundwater ............ NO
    Flow Routing ........... YES
    Ponding Allowed ........ NO
    Water Quality .......... NO
  Infiltration Method ...... HORTON
  Flow Routing Method ...... DYNWAVE
  Surcharge Method ......... EXTRAN
  Starting Date ............ 08/28/2015 08:00:00
  Ending Date .............. 08/28/2015 15:50:00
  Antecedent Dry Days ...... 8.0
  Report Time Step ......... 00:01:00
  Wet Time Step ............ 00:01:00
  Dry Time Step ............ 00:01:00
  Routing Time Step ........ 5.00 sec
  Variable Time Step ....... YES
  Maximum Trials ........... 8
  Number of Threads ........ 4
  Head Tolerance ........... 0.001500 m
  
  
  **************************        Volume         Depth
  Runoff Quantity Continuity     hectare-m            mm
  **************************     ---------       -------
  Total Precipitation ......         7.641        16.729
  Evaporation Loss .........         0.000         0.000
  Infiltration Loss ........         1.880         4.117
  Surface Runoff ...........         4.668        10.221
  Final Storage ............         1.093         2.393
  Continuity Error (%) .....        -0.013
  
  
  **************************        Volume        Volume
  Flow Routing Continuity        hectare-m      10^6 ltr
  **************************     ---------     ---------
  Dry Weather Inflow .......         0.616         6.165
  Wet Weather Inflow .......         4.667        46.671
  Groundwater Inflow .......         0.000         0.000
  RDII Inflow ..............         0.000         0.000
  External Inflow ..........         0.102         1.024
  External Outflow .........         1.899        18.986
  Flooding Loss ............         2.932        29.318
  Evaporation Loss .........         0.000         0.000
  Exfiltration Loss ........         0.000         0.000
  Initial Stored Volume ....         0.076         0.761
  Final Stored Volume ......         0.647         6.467
  Continuity Error (%) .....        -0.276
  
  
  *************************
  Highest Continuity Errors
  *************************
  Node HS02004842 (12.71%)
  Node YS02001884 (8.78%)
  Node HS02004817 (2.32%)
  Node YSB1171 (2.18%)
  Node YS02163301 (1.65%)
  
  
  ***************************
  Time-Step Critical Elements
  ***************************
  Link 3 (45.90%)
  Link WS02006252WS02006251 (41.55%)
  Link WS02006280WS02006229 (4.21%)
  Link WS02006238WS02006235 (3.75%)
  
  
  ********************************
  Highest Flow Instability Indexes
  ********************************
  Link WS02006113WS02006111 (41)
  Link YS02163601YS02164001 (37)
  Link YS02001619YS02001622 (37)
  Link YS02001629YS02163301 (36)
  Link YS02163301YS02001633 (36)
  
  
  *************************
  Routing Time Step Summary
  *************************
  Minimum Time Step           :     0.50 sec
  Average Time Step           :     0.84 sec
  Maximum Time Step           :     5.00 sec
  Percent in Steady State     :    -0.00
  Average Iterations per Step :     4.31
  Percent Not Converging      :    17.49
  
  
  ***************************
  Subcatchment Runoff Summary
  ***************************
  
  ------------------------------------------------------------------------------------------------------------------------------
                            Total      Total      Total      Total     Imperv       Perv      Total       Total     Peak  Runoff
                           Precip      Runon       Evap      Infil     Runoff     Runoff     Runoff      Runoff   Runoff   Coeff
  Subcatchment                 mm         mm         mm         mm         mm         mm         mm    10^6 ltr      LPS
  ------------------------------------------------------------------------------------------------------------------------------
  sub0                      16.73       0.00       0.00       0.97      14.29       0.20      14.50        0.01     3.66   0.867
  sub1                      16.73       0.00       0.00       1.58      13.63       0.26      13.89        0.09    24.51   0.830
  sub2                      16.73       0.00       0.00       5.80       9.63       0.39      10.02        0.09    22.91   0.599
  sub3                      16.73       0.00       0.00       5.88       9.59       0.31       9.90        0.22    50.49   0.592
  sub4                      16.73       0.00       0.00       1.65      13.47       0.19      13.66        0.28    60.01   0.817
  sub5                      16.73       0.00       0.00       0.99      14.24       0.18      14.42        0.16    43.61   0.862
  sub7                      16.73       0.00       0.00       1.26      13.97       0.24      14.21        0.05    13.82   0.849
  sub8                      16.73       0.00       0.00       1.27      13.96       0.23      14.19        0.09    25.44   0.848
  sub9                      16.73       0.00       0.00       1.27      13.96       0.23      14.19        0.07    19.02   0.848
  sub10                     16.73       0.00       0.00       1.13      14.10       0.21      14.30        0.16    42.73   0.855
  sub11                     16.73       0.00       0.00       1.12      14.11       0.21      14.33        0.17    47.25   0.857
  sub12                     16.73       0.00       0.00       1.83      13.37       0.35      13.71        0.12    35.87   0.820
  sub14                     16.73       0.00       0.00       1.27      13.95       0.23      14.19        0.14    37.43   0.848
  sub15                     16.73       0.00       0.00       4.53      10.73       0.49      11.22        0.19    51.47   0.671
  sub16                     16.73       0.00       0.00       4.88      10.29       0.64      10.93        0.11    32.57   0.653
  sub17                     16.73       0.00       0.00       4.74      10.44       0.61      11.05        0.09    26.81   0.661
  sub22                     16.73       0.00       0.00       6.60       8.75       0.59       9.34        0.59   160.16   0.558
  sub23                     16.73       0.00       0.00       5.59       9.67       0.60      10.27        0.49   134.74   0.614
  sub60                     16.73       0.00       0.00       1.94      11.65       0.06      11.71        3.55   386.89   0.700
  sub61                     16.73       0.00       0.00       2.75      11.65       0.09      11.73        3.62   476.87   0.701
  sub62                     16.73       0.00       0.00       1.26      12.72       0.07      12.79        3.93   491.27   0.765
  sub63                     16.73       0.00       0.00       4.75      10.14       0.10      10.23        3.10   437.54   0.612
  sub64                     16.73       0.00       0.00       2.45      11.19       0.06      11.26        3.42   367.58   0.673
  sub65                     16.73       0.00       0.00       2.11      11.40       0.06      11.46        3.52   372.98   0.685
  sub66                     16.73       0.00       0.00       4.79       9.55       0.06       9.61        2.95   336.52   0.575
  sub67                     16.73       0.00       0.00       1.24      13.25       0.09      13.35        4.12   605.48   0.798
  sub68                     16.73       0.00       0.00       2.25      12.20       0.10      12.30        3.78   521.64   0.735
  sub69                     16.73       0.00       0.00       2.37      12.50       0.14      12.64        2.95   482.20   0.755
  sub70                     16.73      12.90       0.00       8.98      17.16       1.09      18.25        4.18   460.88   0.616
  sub71                     16.73       0.00       0.00       1.27      12.46       0.07      12.53        2.96   345.19   0.749
  sub72                     16.73       0.00       0.00       1.14      10.39       0.03      10.43        2.12   185.81   0.623
  sub73                     16.73      17.77       0.00       9.78      19.72       1.38      21.10        4.96   482.28   0.612
  sub74                     16.73       0.00       0.00      12.48       3.71       0.07       3.78        1.51   261.10   0.226
  
  
  ******************
  Node Depth Summary
  ******************
  
  ---------------------------------------------------------------------------------
                                 Average  Maximum  Maximum  Time of Max    Reported
                                   Depth    Depth      HGL   Occurrence   Max Depth
  Node                 Type       Meters   Meters   Meters  days hr:min      Meters
  ---------------------------------------------------------------------------------
  WS02001211           JUNCTION     0.65     0.78     5.62     0  07:50        0.78
  WS02001212           JUNCTION     0.38     0.48     5.55     0  07:50        0.48
  WS02001213           JUNCTION     0.61     0.76     5.53     0  02:01        0.76
  WS02003069           JUNCTION     0.44     0.64     5.22     0  02:03        0.64
  WS02003072           JUNCTION     0.51     0.69     5.06     0  02:04        0.69
  WS02003073           JUNCTION     0.30     0.43     4.49     0  02:04        0.43
  WS02003060           JUNCTION     0.39     0.56     5.50     0  02:02        0.56
  WS02003066           JUNCTION     0.24     0.36     5.91     0  02:02        0.36
  WS02003059           JUNCTION     0.68     0.83     5.51     0  02:02        0.83
  WS02003067           JUNCTION     0.59     0.79     6.11     0  01:59        0.79
  WS02004401           JUNCTION     0.70     1.12     7.12     0  01:54        1.12
  WS02004402           JUNCTION     0.73     1.13     7.09     0  01:54        1.12
  WS02004403           JUNCTION     0.75     1.12     7.05     0  01:52        1.11
  WS02004404           JUNCTION     0.82     1.18     7.03     0  01:52        1.16
  WS02004406           JUNCTION     0.82     1.14     6.97     0  01:51        1.11
  WS02004409           JUNCTION     0.51     0.86     6.63     0  01:58        0.86
  WS02004410           JUNCTION     0.53     0.86     6.58     0  01:58        0.86
  WS02004411           JUNCTION     0.54     0.85     6.53     0  01:58        0.85
  WS02004412           JUNCTION     0.56     0.84     6.48     0  01:58        0.84
  WS02004413           JUNCTION     0.72     0.98     6.45     0  01:58        0.98
  WS02004405           JUNCTION     0.82     1.16     7.01     0  01:53        1.14
  WS02006109           JUNCTION     0.79     1.28     7.89     0  01:55        1.27
  WS02006110           JUNCTION     0.77     1.12     7.70     0  01:56        1.12
  WS02006111           JUNCTION     0.25     0.62     7.33     0  01:55        0.62
  WS02006112           JUNCTION     0.88     1.40     7.28     0  01:55        1.39
  WS02006113           JUNCTION     0.36     0.62     7.52     0  01:55        0.62
  WS02006115           JUNCTION     0.60     1.08     7.22     0  01:54        1.08
  WS02006116           JUNCTION     0.68     1.14     7.18     0  01:54        1.13
  WS02006230           JUNCTION     0.76     1.40     8.14     0  01:56        1.39
  WS02006231           JUNCTION     0.51     1.03     8.16     0  01:56        1.02
  WS02006232           JUNCTION     0.65     1.12     8.16     0  01:56        1.12
  WS02006234           JUNCTION     0.56     1.01     8.17     0  01:59        1.01
  WS02006235           JUNCTION     0.58     1.02     8.18     0  02:00        1.01
  WS02006238           JUNCTION     0.61     1.05     8.19     0  01:59        1.03
  WS02006240           JUNCTION     0.50     0.92     8.21     0  01:51        0.90
  WS02006242           JUNCTION     0.55     1.03     8.30     0  01:48        0.93
  WS02006243           JUNCTION     0.43     1.27     8.69     0  01:49        0.80
  WS02006245           JUNCTION     0.41     0.79     8.27     0  01:51        0.75
  WS02006247           JUNCTION     0.42     0.78     8.28     0  01:51        0.73
  WS02006248           JUNCTION     0.37     0.66     8.24     0  01:51        0.65
  WS02006249           JUNCTION     0.40     0.64     8.24     0  01:51        0.64
  WS02006239           JUNCTION     0.56     0.98     8.19     0  01:51        0.97
  WS02006251           JUNCTION     0.38     0.63     8.30     0  01:51        0.63
  WS02006252           JUNCTION     0.31     0.59     8.83     0  05:56        0.59
  WS02006253           JUNCTION     0.41     0.67     8.31     0  01:51        0.66
  WS02006256           JUNCTION     1.03     1.24     8.18     0  02:00        1.24
  WS02004138           JUNCTION     0.14     0.19     7.44     0  07:42        0.19
  WS02004407           JUNCTION     0.23     0.37     6.68     0  01:56        0.37
  WS02006228           JUNCTION     0.80     1.40     8.05     0  01:55        1.39
  WS02006229           JUNCTION     0.78     1.43     8.13     0  01:55        1.43
  WS02006280           JUNCTION     0.08     0.25     8.52     0  01:55        0.25
  WS02006284           JUNCTION     0.38     0.64     9.04     0  01:55        0.64
  WS02006287           JUNCTION     0.11     0.38     9.33     0  01:54        0.38
  WSF200               JUNCTION     0.23     0.40     5.63     0  02:02        0.40
  HS02004901           JUNCTION     0.14     0.36    10.18     0  01:52        0.36
  HS02004881           JUNCTION     0.01     0.05     9.08     0  01:55        0.05
  HS02004876           JUNCTION     0.05     0.16     9.19     0  01:55        0.16
  HS02004870           JUNCTION     0.02     0.09     9.38     0  01:55        0.09
  HS02004862           JUNCTION     0.02     0.11     9.49     0  01:55        0.11
  HS02004856           JUNCTION     0.08     0.15     9.58     0  01:55        0.15
  HS02004852           JUNCTION     0.01     0.07     9.59     0  01:55        0.07
  HS02004848           JUNCTION     0.01     0.07     9.67     0  01:55        0.07
  HS02004842           JUNCTION     0.34     0.40     9.67     0  01:55        0.40
  HS02004837           JUNCTION     0.03     0.09     9.67     0  01:55        0.09
  HS02004830           JUNCTION     0.04     0.10     9.57     0  01:56        0.10
  HS02004824           JUNCTION     0.03     0.12     9.53     0  01:55        0.12
  HS02004817           JUNCTION     0.46     0.69     9.53     0  01:55        0.69
  HS02004807           JUNCTION     0.14     0.36     9.53     0  01:55        0.36
  HS02004802           JUNCTION     0.18     0.39     9.52     0  01:55        0.39
  HS02004799           JUNCTION     0.14     0.45     9.66     0  01:53        0.45
  HS02004792           JUNCTION     0.04     0.20     9.73     0  01:52        0.20
  HS02004788           JUNCTION     0.03     0.15    10.05     0  01:53        0.15
  HS02004785           JUNCTION     0.06     0.23    10.14     0  01:52        0.23
  HS02004777           JUNCTION     0.16     0.37    10.17     0  01:52        0.37
  HS02004770           JUNCTION     0.13     0.35    10.18     0  01:52        0.35
  HS02004480           JUNCTION     0.10     0.37     9.61     0  01:53        0.37
  HS02004479           JUNCTION     0.13     0.41     9.61     0  01:53        0.41
  HS02004478           JUNCTION     0.08     0.27     9.50     0  01:54        0.27
  YS02001745           JUNCTION     0.78     0.95     8.47     0  02:52        0.95
  YS02001748           JUNCTION     1.19     1.39     8.47     0  02:47        1.39
  YS02001751           JUNCTION     1.37     1.74     8.62     0  01:48        1.58
  YS02001754           JUNCTION     1.63     1.85     8.46     0  02:46        1.84
  YS02001762           JUNCTION     1.83     2.05     8.45     0  02:47        2.04
  YS02001765           JUNCTION     1.78     2.00     8.45     0  02:47        1.99
  YS02001767           JUNCTION     1.74     1.95     8.44     0  02:47        1.94
  YS02001770           JUNCTION     1.74     1.93     8.43     0  02:47        1.93
  YS02001774           JUNCTION     1.80     1.99     8.41     0  02:47        1.98
  YS02001779           JUNCTION     1.55     1.68     8.37     0  01:47        1.68
  YS02001882           JUNCTION     0.65     1.83     8.55     0  01:54        1.62
  YS02001884           JUNCTION     0.75     1.93     8.55     0  01:54        1.73
  YS02001759           JUNCTION     1.86     2.09     8.45     0  02:47        2.08
  YS02001887           JUNCTION     0.82     1.93     8.47     0  01:54        1.80
  YS02001890           JUNCTION     0.85     1.81     8.32     0  01:54        1.81
  YS02001898           JUNCTION     0.62     1.58     8.31     0  01:54        1.56
  YS02001901           JUNCTION     0.74     1.68     8.29     0  01:56        1.67
  YS02001904           JUNCTION     0.71     1.64     8.27     0  01:56        1.64
  YS02001907           JUNCTION     1.04     1.96     8.25     0  01:56        1.96
  YS02001910           JUNCTION     0.83     1.96     8.46     0  01:57        1.83
  YS02001915           JUNCTION     0.63     1.90     8.61     0  01:57        1.69
  YS02001918           JUNCTION     0.38     1.79     8.86     0  01:57        1.46
  YS02001619           JUNCTION     1.33     1.61     8.54     0  01:47        1.61
  YS02001629           JUNCTION     1.69     1.85     8.40     0  01:47        1.85
  YS02001641           JUNCTION     1.79     1.94     8.37     0  02:12        1.93
  YS02001644           JUNCTION     1.79     1.92     8.35     0  01:51        1.92
  YS02001652           JUNCTION     1.64     2.16     8.76     0  02:09        1.93
  YS02001655           JUNCTION     1.40     2.20     9.05     0  02:10        1.82
  YS02001920           JUNCTION     0.48     1.95     8.96     0  01:57        1.57
  YS02001923           JUNCTION     0.31     2.00     9.26     0  01:57        1.37
  YS02001926           JUNCTION     0.35     1.90     9.35     0  01:57        1.17
  YS02001929           JUNCTION     0.21     0.93     8.62     0  01:57        0.87
  YS02001658           JUNCTION     1.13     2.30     9.44     0  02:12        1.69
  YS02001661           JUNCTION     0.89     2.46     9.86     0  02:09        1.87
  YS02001664           JUNCTION     0.40     0.56     8.49     0  04:20        0.56
  YS02001622           JUNCTION     1.36     1.62     8.52     0  01:47        1.62
  YS02001633           JUNCTION     1.78     1.95     8.40     0  02:07        1.94
  YS02001649           JUNCTION     1.83     2.05     8.44     0  02:06        2.05
  YS02001757           JUNCTION     1.96     2.19     8.45     0  02:47        2.18
  YS02001895           JUNCTION     0.61     1.57     8.32     0  01:56        1.56
  YS02001625           JUNCTION     1.64     1.78     8.38     0  01:46        1.78
  YS02163301           JUNCTION     1.72     1.92     8.43     0  01:49        1.88
  YS02163601           JUNCTION     1.83     1.99     8.39     0  07:11        1.98
  YS02164001           JUNCTION     1.77     1.92     8.38     0  07:11        1.91
  YS02001647           JUNCTION     1.62     1.80     8.41     0  02:08        1.79
  YSB1154              JUNCTION     0.27     0.56     9.62     0  01:53        0.56
  YSB6556              JUNCTION     0.17     0.44     9.61     0  01:53        0.44
  YSB1174              JUNCTION     0.23     0.50     9.61     0  01:53        0.50
  YSB1171              JUNCTION     0.42     0.71     9.61     0  01:53        0.71
  YS02006553           JUNCTION     1.04     2.01     8.29     0  01:54        1.96
  YS02006561           JUNCTION     0.39     1.71     8.37     0  01:54        1.08
  YS02006556           JUNCTION     1.01     2.05     8.36     0  01:54        1.92
  YS02006558           JUNCTION     1.05     2.13     8.40     0  01:54        1.96
  YS02001783           JUNCTION     0.65     1.91     8.05     0  01:54        1.47
  YS02001784           JUNCTION     0.67     1.86     7.93     0  01:54        1.41
  YS02001786           JUNCTION     0.61     2.01     8.04     0  01:54        1.26
  YS02001788           JUNCTION     0.55     2.28     8.26     0  01:54        1.13
  YS02001790           JUNCTION     0.71     1.96     7.60     0  01:53        1.29
  YS02001791           JUNCTION     0.73     2.27     7.74     0  05:34        1.27
  YS02001793           JUNCTION     1.08     2.31     7.14     0  05:32        1.80
  WS02004139           JUNCTION     0.59     0.72     5.63     0  07:50        0.72
  WSC                  OUTFALL      0.30     0.43     1.10     0  02:05        0.43
  3                    OUTFALL      0.10     0.24     6.24     0  02:00        0.24
  4                    OUTFALL      0.02     0.14     7.14     0  01:52        0.14
  5                    OUTFALL      0.00     0.00     5.00     0  00:00        0.00
  JK-storage           STORAGE      4.38     5.80     6.60     0  01:54        5.80
  CC-storage           STORAGE      1.17     1.44     8.44     0  02:52        1.44
  XR-storage           STORAGE      7.41     7.72     5.72     0  01:58        7.72
  
  
  *******************
  Node Inflow Summary
  *******************
  
  -------------------------------------------------------------------------------------------------
                                  Maximum  Maximum                  Lateral       Total        Flow
                                  Lateral    Total  Time of Max      Inflow      Inflow     Balance
                                   Inflow   Inflow   Occurrence      Volume      Volume       Error
  Node                 Type           LPS      LPS  days hr:min    10^6 ltr    10^6 ltr     Percent
  -------------------------------------------------------------------------------------------------
  WS02001211           JUNCTION      7.35   387.45     0  07:50       0.207        6.46       0.648
  WS02001212           JUNCTION      0.00   387.19     0  07:50           0        6.42       0.373
  WS02001213           JUNCTION      0.00   387.19     0  07:50           0         6.4       0.439
  WS02003069           JUNCTION      0.32  1096.70     0  02:03     0.00902          15       0.245
  WS02003072           JUNCTION      0.00  1096.18     0  02:03           0        14.9       0.290
  WS02003073           JUNCTION      1.82  1098.02     0  02:04      0.0514        14.9       0.336
  WS02003060           JUNCTION     16.53  1096.18     0  02:02       0.466          15       0.230
  WS02003066           JUNCTION      0.00   815.88     0  01:58           0        8.21       0.059
  WS02003059           JUNCTION      0.00   387.45     0  07:50           0        6.37       0.660
  WS02003067           JUNCTION      0.00   815.91     0  01:58           0        8.22       0.122
  WS02004401           JUNCTION      0.00   818.21     0  01:55           0        8.47       0.269
  WS02004402           JUNCTION      0.00   817.92     0  01:55           0        8.44       0.251
  WS02004403           JUNCTION      0.00   817.79     0  01:55           0        8.42       0.228
  WS02004404           JUNCTION      0.16   817.71     0  01:55     0.00457        8.41       0.170
  WS02004406           JUNCTION      0.00   817.64     0  01:56           0        8.37       0.416
  WS02004409           JUNCTION      0.00   817.57     0  01:56           0        8.33       0.220
  WS02004410           JUNCTION      0.00   816.25     0  01:57           0        8.31       0.246
  WS02004411           JUNCTION      0.00   815.97     0  01:57           0        8.29       0.251
  WS02004412           JUNCTION      0.00   815.89     0  01:58           0        8.27       0.267
  WS02004413           JUNCTION      0.00   815.88     0  01:58           0        8.25       0.392
  WS02004405           JUNCTION      0.04   817.64     0  01:55     0.00107        8.39       0.254
  WS02006109           JUNCTION      1.23   791.91     0  01:55      0.0347         8.5       0.220
  WS02006110           JUNCTION      0.00   791.84     0  01:55           0        8.48       0.253
  WS02006111           JUNCTION      0.00   805.47     0  01:50           0        8.45       0.056
  WS02006112           JUNCTION     26.81   817.64     0  01:56      0.0948        8.54       0.359
  WS02006113           JUNCTION      0.00   791.85     0  01:55           0        8.46       0.121
  WS02006115           JUNCTION      0.00   817.58     0  01:56           0        8.51       0.264
  WS02006116           JUNCTION      0.00   817.87     0  01:55           0        8.48       0.230
  WS02006230           JUNCTION     10.28   400.15     0  05:12        0.29        5.82       0.185
  WS02006231           JUNCTION      0.00   391.42     0  05:11           0        5.54       0.256
  WS02006232           JUNCTION      0.00   391.48     0  05:11           0        5.55       0.291
  WS02006234           JUNCTION      0.00   393.47     0  05:11           0        5.55       0.173
  WS02006235           JUNCTION      0.00   393.53     0  05:10           0        5.61       0.170
  WS02006238           JUNCTION      0.00   343.84     0  06:00           0         3.8       0.209
  WS02006240           JUNCTION      0.00   337.64     0  06:00           0        3.79       0.340
  WS02006242           JUNCTION      0.00   335.00     0  07:11           0         3.8       0.394
  WS02006243           JUNCTION      0.00   334.65     0  07:11           0        3.79      -0.036
  WS02006245           JUNCTION      0.00   337.49     0  07:31           0         3.8       0.334
  WS02006247           JUNCTION      0.00   343.31     0  07:30           0        3.81       0.186
  WS02006248           JUNCTION      0.00   348.93     0  07:30           0        3.81       0.092
  WS02006249           JUNCTION      0.00   401.43     0  05:59           0        4.19       0.273
  WS02006239           JUNCTION      0.00   342.01     0  06:00           0         3.8       0.282
  WS02006251           JUNCTION      0.08   401.71     0  05:57     0.00217        4.23       0.206
  WS02006252           JUNCTION      0.00   400.00     0  05:50           0        3.66       0.012
  WS02006253           JUNCTION      3.66   142.87     0  01:54      0.0117       0.568       0.682
  WS02006256           JUNCTION      0.00   602.99     0  02:00           0        5.57       0.045
  WS02004138           JUNCTION      0.00   380.00     0  07:40           0         6.3       0.096
  WS02004407           JUNCTION      0.00   818.29     0  01:55           0        8.34       0.097
  WS02006228           JUNCTION      0.00   790.74     0  01:55           0        8.48       0.161
  WS02006229           JUNCTION      0.00   791.70     0  01:52           0         8.5       0.169
  WS02006280           JUNCTION      0.00   656.04     0  01:55           0         2.7       0.002
  WS02006284           JUNCTION      0.10   655.95     0  01:55      0.0027         2.7       0.039
  WS02006287           JUNCTION      0.00   655.80     0  01:54           0         2.7       0.027
  WSF200               JUNCTION      0.00   815.67     0  01:59           0         8.2       0.056
  HS02004901           JUNCTION     32.57    32.57     0  01:50       0.114       0.115       1.559
  HS02004881           JUNCTION     13.82   139.59     0  01:54      0.0479       0.529       0.052
  HS02004876           JUNCTION     24.51   126.37     0  01:54      0.0923       0.482       0.114
  HS02004870           JUNCTION     25.44   102.13     0  01:54      0.0907        0.39       0.027
  HS02004862           JUNCTION     23.11    77.53     0  01:55       0.099       0.299       0.058
  HS02004856           JUNCTION     19.02    54.51     0  01:55      0.0682       0.202       0.719
  HS02004852           JUNCTION      0.00    36.10     0  01:55           0       0.134       0.042
  HS02004848           JUNCTION     50.49    50.49     0  01:57       0.223       0.223       0.021
  HS02004842           JUNCTION      0.00    15.55     0  02:06           0       0.102      14.564
  HS02004837           JUNCTION     49.08    62.50     0  01:55       0.337       0.426       0.190
  HS02004830           JUNCTION      0.15    62.61     0  01:55     0.00423       0.416       0.297
  HS02004824           JUNCTION     60.06   122.20     0  01:58       0.286       0.702       0.077
  HS02004817           JUNCTION      0.60   124.03     0  01:59      0.0169       0.718       2.378
  HS02004807           JUNCTION     47.25   168.28     0  01:57       0.166       0.868       0.499
  HS02004802           JUNCTION      0.00   169.24     0  01:58           0       0.865       0.462
  HS02004799           JUNCTION     37.43   414.52     0  01:52       0.135        1.57       0.166
  HS02004792           JUNCTION    160.44   377.30     0  01:52       0.598        1.44       0.028
  HS02004788           JUNCTION     53.14   218.54     0  01:52        0.24       0.839       0.046
  HS02004785           JUNCTION      0.15   165.59     0  01:52     0.00423       0.601       0.083
  HS02004777           JUNCTION      0.03   165.80     0  01:51    0.000846       0.601       0.872
  HS02004770           JUNCTION    134.74   166.64     0  01:51        0.49       0.602       0.515
  HS02004480           JUNCTION      0.00   492.22     0  01:53           0        1.85       0.065
  HS02004479           JUNCTION      0.00    78.00     0  01:53           0       0.292       0.252
  HS02004478           JUNCTION      0.00   655.76     0  01:54           0         2.7       0.013
  YS02001745           JUNCTION    386.89   386.89     0  02:16        3.55        3.55       0.312
  YS02001748           JUNCTION      0.04   396.81     0  02:15     0.00127        3.54       0.650
  YS02001751           JUNCTION      0.01   396.95     0  02:15     0.00031        3.52       0.682
  YS02001754           JUNCTION      0.26   397.01     0  02:15     0.00733         3.5       0.700
  YS02001762           JUNCTION      0.00   436.02     0  02:03           0        2.53       0.836
  YS02001765           JUNCTION      0.00   435.91     0  02:03           0        2.53       0.966
  YS02001767           JUNCTION      0.54   435.99     0  02:03      0.0151        2.55       1.413
  YS02001770           JUNCTION    491.42   713.80     0  02:58        3.94        4.96       0.633
  YS02001774           JUNCTION      0.00   713.91     0  02:57           0        3.41       0.735
  YS02001779           JUNCTION      0.01   713.97     0  02:57    0.000141        3.39       0.453
  YS02001882           JUNCTION      0.00    26.91     0  01:54           0      0.0287       6.267
  YS02001884           JUNCTION      0.00    47.18     0  01:52           0      0.0653       9.620
  YS02001759           JUNCTION    476.91   869.44     0  02:04        3.62        5.09       0.447
  YS02001887           JUNCTION    605.93   606.07     0  02:15        4.13        4.16       0.195
  YS02001890           JUNCTION      0.00   606.11     0  02:16           0        4.11       0.209
  YS02001898           JUNCTION      0.00   517.20     0  02:27           0           4       0.065
  YS02001901           JUNCTION      0.00   517.19     0  02:27           0           4       0.150
  YS02001904           JUNCTION      0.00   517.21     0  02:27           0           4       0.130
  YS02001907           JUNCTION      0.00  1142.64     0  01:58           0        9.14       0.256
  YS02001910           JUNCTION      0.00   630.08     0  01:58           0        5.16       0.228
  YS02001915           JUNCTION    345.21   630.10     0  01:58        2.96        5.21       0.099
  YS02001918           JUNCTION      0.00   358.99     0  01:58           0        2.28       0.053
  YS02001619           JUNCTION    336.52   336.52     0  02:16        2.95        2.95       0.413
  YS02001629           JUNCTION      0.00   242.21     0  01:47           0        1.44       2.003
  YS02001641           JUNCTION      0.00   424.71     0  01:51           0        4.86       0.432
  YS02001644           JUNCTION    367.62  1535.33     0  02:58        3.42        12.9       0.201
  YS02001652           JUNCTION      0.00   478.95     0  02:12           0        3.05       0.760
  YS02001655           JUNCTION      0.15   478.58     0  02:12     0.00434        3.07       0.820
  YS02001920           JUNCTION      2.87   358.80     0  01:58      0.0809        2.26       0.114
  YS02001923           JUNCTION      0.04   293.57     0  01:56     0.00106        2.16       0.039
  YS02001926           JUNCTION      0.05   357.33     0  01:56     0.00147        2.14       0.149
  YS02001929           JUNCTION    185.81   225.10     0  01:57        2.12        2.13       0.035
  YS02001658           JUNCTION      0.00   506.38     0  02:11           0        3.09       0.747
  YS02001661           JUNCTION      0.00   770.26     0  02:05           0        3.66       0.052
  YS02001664           JUNCTION    437.54   437.54     0  02:16         3.1        3.67       0.168
  YS02001622           JUNCTION      0.00   336.76     0  02:16           0        2.94       1.093
  YS02001633           JUNCTION    373.18   425.18     0  01:51        3.53        4.93       0.651
  YS02001649           JUNCTION      0.00   991.05     0  01:58           0        7.28       0.505
  YS02001757           JUNCTION      0.00  2135.33     0  02:03           0        10.3       0.902
  YS02001895           JUNCTION      0.00   517.17     0  02:27           0        4.01       0.114
  YS02001625           JUNCTION      0.00   336.59     0  02:16           0        2.91       1.363
  YS02163301           JUNCTION      0.00   228.79     0  01:48           0        1.44       1.680
  YS02163601           JUNCTION      0.11   425.00     0  01:51      0.0031        4.87       0.615
  YS02164001           JUNCTION      0.00   424.72     0  01:51           0        4.85       0.408
  YS02001647           JUNCTION      0.00   810.01     0  02:56           0         6.3       0.448
  YSB1154              JUNCTION     43.61    43.61     0  01:53       0.163       0.164       0.888
  YSB6556              JUNCTION      0.00    43.64     0  01:53           0       0.165       0.765
  YSB1174              JUNCTION     35.87    35.87     0  01:50        0.12        0.12       1.077
  YSB1171              JUNCTION      0.00    78.04     0  01:52           0       0.291       2.227
  YS02006553           JUNCTION      0.00   683.10     0  03:22           0        7.13       0.208
  YS02006561           JUNCTION      0.00   994.78     0  01:54           0        10.9       0.004
  YS02006556           JUNCTION      0.00   683.34     0  03:22           0        7.13       0.141
  YS02006558           JUNCTION    522.52   993.91     0  01:54        3.81        10.9       0.044
  YS02001783           JUNCTION      0.00   968.30     0  02:16           0        10.9       0.020
  YS02001784           JUNCTION      1.06   969.43     0  02:16      0.0299        10.9       0.034
  YS02001786           JUNCTION      0.06   969.37     0  02:15     0.00159        10.9       0.032
  YS02001788           JUNCTION      0.07   969.50     0  02:15       0.002        10.9       0.018
  YS02001790           JUNCTION      0.15   969.70     0  02:15     0.00437        10.9       0.023
  YS02001791           JUNCTION      0.00   969.70     0  02:15           0        10.9       0.010
  YS02001793           JUNCTION      0.00   969.81     0  02:15           0        10.9       0.006
  WS02004139           JUNCTION      0.32   380.32     0  07:42     0.00905         6.3       0.711
  WSC                  OUTFALL       0.00  1098.06     0  02:05           0        14.9       0.000
  3                    OUTFALL       0.00   603.12     0  02:00           0        3.73       0.000
  4                    OUTFALL       0.00   193.76     0  01:52           0       0.371       0.000
  5                    OUTFALL       0.00     0.00     0  00:00           0           0       0.000 ltr
  JK-storage           STORAGE       0.00   969.94     0  02:15           0        11.1      -0.882
  CC-storage           STORAGE       0.00  2135.02     0  02:03           0        7.54       0.848
  XR-storage           STORAGE     844.69   844.69     0  03:01        12.1        12.7      -0.001
  
  
  **********************
  Node Surcharge Summary
  **********************
  
  Surcharging occurs when water rises above the top of the highest conduit.
  ---------------------------------------------------------------------
                                               Max. Height   Min. Depth
                                   Hours       Above Crown    Below Rim
  Node                 Type      Surcharged         Meters       Meters
  ---------------------------------------------------------------------
  WS02004401           JUNCTION        0.52          0.124        1.536
  WS02004402           JUNCTION        0.56          0.126        1.614
  WS02004403           JUNCTION        0.57          0.124        1.906
  WS02004404           JUNCTION        0.77          0.176        2.604
  WS02004406           JUNCTION        0.68          0.144        2.306
  WS02004405           JUNCTION        0.72          0.159        2.641
  WS02006109           JUNCTION        1.55          0.456        1.364
  WS02006110           JUNCTION        0.90          0.209        1.641
  WS02006112           JUNCTION        0.95          0.401        1.279
  WS02006115           JUNCTION        0.30          0.069        2.181
  WS02006116           JUNCTION        0.34          0.076        2.214
  WS02006230           JUNCTION        0.73          0.318        1.252
  WS02006231           JUNCTION        0.78          0.322        1.208
  WS02006232           JUNCTION        1.79          0.424        1.056
  WS02006234           JUNCTION        0.81          0.295        0.945
  WS02006235           JUNCTION        1.05          0.310        0.980
  WS02006238           JUNCTION        1.43          0.325        1.105
  WS02006240           JUNCTION        0.74          0.212        1.178
  WS02006242           JUNCTION        1.05          0.301        0.519
  WS02006243           JUNCTION        0.37          0.563        0.207
  WS02006245           JUNCTION        0.21          0.076        0.774
  WS02006247           JUNCTION        0.18          0.065        0.695
  WS02006239           JUNCTION        0.78          0.245        1.045
  WS02006252           JUNCTION        1.25          0.193        0.907
  WS02006228           JUNCTION        1.45          0.565        1.635
  YS02001748           JUNCTION        5.99          0.308        0.882
  YS02001751           JUNCTION        6.02          0.743        0.457
  YS02001754           JUNCTION        6.05          0.800        0.350
  YS02001762           JUNCTION        6.08          1.051        0.099
  YS02001765           JUNCTION        6.08          0.998        0.102
  YS02001767           JUNCTION        6.07          0.952        0.078
  YS02001770           JUNCTION        6.07          0.904        0.016
  YS02001774           JUNCTION        6.08          0.985        0.065
  YS02001779           JUNCTION        6.04          0.680        0.000
  YS02001882           JUNCTION        1.77          0.830        0.000
  YS02001884           JUNCTION        1.80          0.870        0.000
  YS02001759           JUNCTION        6.09          1.087        0.123
  YS02001887           JUNCTION        1.88          0.884        0.066
  YS02001890           JUNCTION        1.91          0.760        0.000
  YS02001898           JUNCTION        1.73          0.547        0.193
  YS02001901           JUNCTION        1.85          0.680        0.190
  YS02001904           JUNCTION        1.82          0.642        0.208
  YS02001907           JUNCTION        2.27          0.950        0.000
  YS02001910           JUNCTION        1.95          0.957        0.143
  YS02001915           JUNCTION        1.76          0.897        0.103
  YS02001918           JUNCTION        1.55          0.790        0.020
  YS02001619           JUNCTION        6.02          0.610        0.000
  YS02001629           JUNCTION        6.02          0.470        0.000
  YS02001641           JUNCTION        6.08          0.935        0.165
  YS02001644           JUNCTION        6.08          0.920        0.000
  YS02001652           JUNCTION        6.05          1.130        0.000
  YS02001655           JUNCTION        6.02          1.200        0.000
  YS02001920           JUNCTION        1.58          0.954        0.186
  YS02001923           JUNCTION        0.01          0.791        0.029
  YS02001926           JUNCTION        0.01          0.900        0.000
  YS02001658           JUNCTION        5.99          1.300        0.000
  YS02001661           JUNCTION        0.18          1.390        0.000
  YS02001622           JUNCTION        6.02          0.620        0.000
  YS02001633           JUNCTION        6.08          0.925        0.135
  YS02001649           JUNCTION        6.08          1.050        0.000
  YS02001757           JUNCTION        6.12          1.187        0.023
  YS02001895           JUNCTION        1.74          0.569        0.181
  YS02001625           JUNCTION        6.05          0.780        0.000
  YS02163301           JUNCTION        6.07          0.916        0.114
  YS02163601           JUNCTION        6.09          0.991        0.089
  YS02164001           JUNCTION        6.08          0.924        0.176
  YS02001647           JUNCTION        6.05          0.802        0.098
  YS02006553           JUNCTION        2.32          1.006        0.184
  YS02006561           JUNCTION        1.65          0.914        0.236
  YS02006556           JUNCTION        2.12          1.014        0.336
  YS02006558           JUNCTION        2.09          1.029        0.371
  YS02001783           JUNCTION        2.12          1.106        0.494
  YS02001784           JUNCTION        2.21          1.063        0.427
  YS02001786           JUNCTION        2.09          1.214        0.216
  YS02001788           JUNCTION        2.09          1.480        0.000
  YS02001790           JUNCTION        3.58          1.157        0.000
  YS02001791           JUNCTION        3.75          1.466        0.454
  YS02001793           JUNCTION        3.93          1.306        1.294
  
  
  *********************
  Node Flooding Summary
  *********************
  
  Flooding refers to all water that overflows a node, whether it ponds or not.
  --------------------------------------------------------------------------
                                                             Total   Maximum
                                 Maximum   Time of Max       Flood    Ponded
                        Hours       Rate    Occurrence      Volume     Depth
  Node                 Flooded       LPS   days hr:min    10^6 ltr    Meters
  --------------------------------------------------------------------------
  YS02001779              3.34    713.96      0  02:57       3.370     0.000
  YS02001882              0.01     19.24      0  01:54       0.000     0.000
  YS02001884              0.01      7.42      0  01:54       0.000     0.000
  YS02001890              0.57     89.91      0  02:15       0.101     0.000
  YS02001907              1.40    614.70      0  01:58       2.001     0.000
  YS02001619              0.01     63.68      0  01:48       0.000     0.000
  YS02001629              0.01    204.28      0  01:47       0.001     0.000
  YS02001644              5.07   1535.33      0  02:58      11.215     0.000
  YS02001652              0.01     20.71      0  02:13       0.000     0.000
  YS02001655              0.01     19.57      0  02:10       0.000     0.000
  YS02001926              0.01    316.56      0  01:57       0.000     0.000
  YS02001658              0.01     12.98      0  02:12       0.000     0.000
  YS02001661              0.01    163.49      0  02:13       0.000     0.000
  YS02001622              0.01     54.16      0  01:47       0.000     0.000
  YS02001649              0.04     48.61      0  02:13       0.002     0.000
  YS02001625              2.04    326.17      0  02:16       1.445     0.000
  YS02001788              0.01    128.93      0  01:54       0.000     0.000
  YS02001790              0.01    111.67      0  01:53       0.000     0.000
  JK-storage              3.01    967.14      0  02:42       5.599     0.000
  XR-storage              5.16    744.47      0  02:16       5.583     0.000
  
  
  **********************
  Storage Volume Summary
  **********************
  
  --------------------------------------------------------------------------------------------------
                         Average     Avg  Evap Exfil       Maximum     Max    Time of Max    Maximum
                          Volume    Pcnt  Pcnt  Pcnt        Volume    Pcnt     Occurrence    Outflow
  Storage Unit           1000 m3    Full  Loss  Loss       1000 m3    Full    days hr:min        LPS
  --------------------------------------------------------------------------------------------------
  JK-storage               0.220      76     0     0         0.291     100       0  01:54     600.00
  CC-storage               3.264      21     0     0         4.026      26       0  02:52     400.00
  XR-storage               0.889      96     0     0         0.926     100       0  01:58     380.00
  
  
  ***********************
  Outfall Loading Summary
  ***********************
  
  -----------------------------------------------------------
                         Flow       Avg       Max       Total
                         Freq      Flow      Flow      Volume
  Outfall Node           Pcnt       LPS       LPS    10^6 ltr
  -----------------------------------------------------------
  WSC                  100.00    586.61   1098.06      14.888
  3                     80.29    233.49    603.12       3.727
  4                     32.33     57.00    193.76       0.371
  5                      0.00      0.00      0.00       0.000
  -----------------------------------------------------------
  System                53.15    877.10   1792.18      18.986
  
  
  ********************
  Link Flow Summary
  ********************
  
  -----------------------------------------------------------------------------
                                 Maximum  Time of Max   Maximum    Max/    Max/
                                  |Flow|   Occurrence   |Veloc|    Full    Full
  Link                 Type          LPS  days hr:min     m/sec    Flow   Depth
  -----------------------------------------------------------------------------
  WS02003066WSF200     CONDUIT    815.67     0  01:59      3.06    0.14    0.29
  WS02006287WS02006284 CONDUIT    655.86     0  01:55      2.36    0.30    0.38
  WS02006284WS02006280 CONDUIT    656.04     0  01:55      2.59    0.27    0.36
  WS02006280WS02006229 CONDUIT    656.05     0  01:55      4.21    0.14    0.25
  WS02006229WS02006228 CONDUIT    790.74     0  01:55      1.57    2.62    1.00
  WS02006256WS02006235 CONDUIT    150.00     0  00:15      2.14    1.59    1.00
  WS02006253WS02006251 CONDUIT    153.35     0  01:51      0.60    0.46    0.92
  WS02006252WS02006251 CONDUIT    400.64     0  05:57      3.19    1.47    1.00
  WS02006251WS02006249 CONDUIT    401.43     0  05:59      1.15    1.16    0.91
  WS02006249WS02006248 CONDUIT    348.93     0  07:30      1.15    1.91    0.91
  WS02006248WS02006247 CONDUIT    343.31     0  07:30      1.10    0.75    0.97
  WS02006247WS02006245 CONDUIT    337.49     0  07:31      1.05    2.68    1.00
  WS02006245WS02006243 CONDUIT    334.65     0  07:11      1.05    0.99    1.00
  WS02006243WS02006242 CONDUIT    335.00     0  07:11      0.94    0.72    1.00
  WS02006242WS02006240 CONDUIT    337.64     0  06:00      0.91    1.34    1.00
  WS02006240WS02006239 CONDUIT    342.01     0  06:00      0.95    1.08    1.00
  WS02006239WS02006238 CONDUIT    343.84     0  06:00      0.91    1.10    1.00
  WS02006238WS02006235 CONDUIT    343.56     0  06:00      0.91    0.77    1.00
  WS02006235WS02006234 CONDUIT    393.47     0  05:11      1.04    4.15    1.00
  WS02006234WS02006232 CONDUIT    391.48     0  05:11      1.02    0.79    1.00
  WS02006232WS02006231 CONDUIT    391.42     0  05:11      1.06    0.82    1.00
  WS02006231WS02006230 CONDUIT    389.87     0  05:12      1.35    5.91    1.00
  WS02006230WS02006229 CONDUIT    399.35     0  05:13      1.04    8.89    1.00
  WS02006228WS02006109 CONDUIT    790.68     0  01:55      1.57    3.45    1.00
  WS02006116WS02004401 CONDUIT    818.21     0  01:55      1.04    1.13    1.00
  WS02006115WS02006116 CONDUIT    817.87     0  01:55      1.04    1.05    1.00
  WS02006113WS02006111 CONDUIT    805.47     0  01:50      2.65    0.97    0.78
  WS02006112WS02006115 CONDUIT    817.58     0  01:56      1.04    0.48    1.00
  WS02006111WS02006112 CONDUIT    792.84     0  01:56      1.79    0.38    0.88
  WS02006110WS02006113 CONDUIT    791.85     0  01:55      1.71    0.72    0.89
  WS02006109WS02006110 CONDUIT    791.84     0  01:55      1.58    1.52    1.00
  WS02004411WS02004412 CONDUIT    815.89     0  01:58      1.15    1.16    0.85
  WS02004401WS02004402 CONDUIT    817.92     0  01:55      1.04    0.98    1.00
  WS02004413WS02003067 CONDUIT    815.91     0  01:58      1.41    0.35    0.69
  WS02004412WS02004413 CONDUIT    815.88     0  01:58      1.09    0.55    0.91
  WS02004410WS02004411 CONDUIT    815.97     0  01:57      1.14    1.11    0.86
  WS02004409WS02004410 CONDUIT    816.25     0  01:57      1.14    1.06    0.86
  WS02004407WS02004409 CONDUIT    817.57     0  01:56      1.68    0.29    0.61
  WS02004406WS02004407 CONDUIT    818.29     0  01:55      1.43    0.37    0.68
  WS02004405WS02004406 CONDUIT    817.64     0  01:56      1.04    1.61    1.00
  WS02004404WS02004405 CONDUIT    817.61     0  01:55      1.04    8.01    1.00
  WS02004403WS02004404 CONDUIT    817.54     0  01:55      1.04    0.59    1.00
  WS02004402WS02004403 CONDUIT    817.79     0  01:55      1.04    1.17    1.00
  WS02004139WS02001211 CONDUIT    380.10     0  07:50      0.81    0.48    0.58
  WS02004138WS02004139 CONDUIT    380.00     0  07:42      3.34    0.08    0.43
  WS02003067WS02003066 CONDUIT    815.88     0  01:58      1.53    0.26    0.48
  WS02001213WS02003059 CONDUIT    387.45     0  07:50      0.78    0.64    0.79
  WS02001212WS02001213 CONDUIT    387.19     0  07:50      1.19    0.60    0.46
  WS02001211WS02001212 CONDUIT    387.19     0  07:50      0.74    0.30    0.63
  WS02003072WS02003073 CONDUIT   1096.20     0  02:04      1.82    2.37    0.52
  WS02003069WS02003072 CONDUIT   1096.18     0  02:03      1.71    0.53    0.55
  WS02003060WS02003069 CONDUIT   1096.38     0  02:03      1.94    0.43    0.50
  WS02003059WS02003060 CONDUIT    387.90     0  07:50      0.82    0.25    0.70
  HS02004901HS02004770 CONDUIT     31.95     0  01:52      0.09    0.12    0.51
  HS02004876HS02004881 CONDUIT    126.38     0  01:55      1.20    1.34    0.15
  HS02004870HS02004876 CONDUIT    102.10     0  01:55      0.82    0.07    0.18
  HS02004842HS02004848 CONDUIT     15.55     0  02:06      0.07    0.01    0.33
  HS02004837HS02004842 CONDUIT     15.96     0  02:07      0.42    0.01    0.35
  HS02004830HS02004837 CONDUIT     62.46     0  01:55      0.66    0.06    0.14
  HS02004824HS02004830 CONDUIT     62.57     0  01:56      0.62    0.08    0.16
  HS02004817HS02004824 CONDUIT    123.43     0  01:59      0.31    0.06    0.58
  HS02004770HS02004777 CONDUIT    165.77     0  01:51      0.46    0.30    0.52
  HS02004799HS02004480 CONDUIT    414.29     0  01:53      1.02    0.52    0.58
  HS02004792HS02004799 CONDUIT    377.20     0  01:52      1.15    0.23    0.47
  HS02004788HS02004792 CONDUIT    218.44     0  01:53      1.24    0.14    0.25
  HS02004785HS02004788 CONDUIT    165.54     0  01:53      0.86    1.25    0.27
  HS02004777HS02004785 CONDUIT    165.44     0  01:52      0.54    0.20    0.44
  HS02004480HS02004478 CONDUIT    492.13     0  01:53      1.52    2.07    0.46
  HS02004479HS02004480 CONDUIT     78.31     0  01:54      0.27    0.08    0.55
  HS02004862HS02004870 CONDUIT     77.52     0  01:55      0.79    0.08    0.14
  HS02004848HS02004852 CONDUIT     36.10     0  01:55      0.52    0.04    0.10
  HS02004856HS02004862 CONDUIT     54.46     0  01:55      0.59    0.05    0.13
  HS02004852HS02004856 CONDUIT     36.15     0  01:56      0.33    0.04    0.16
  HS02004802HS02004478 CONDUIT    170.22     0  01:58      0.53    0.15    0.47
  HS02004478WS02006287 CONDUIT    655.80     0  01:54      2.08    0.18    0.35
  HS02004817HS02004807 CONDUIT    125.36     0  01:59      0.24    0.07    0.75
  HS02004807HS02004802 CONDUIT    169.24     0  01:58      0.47    0.32    0.53
  YS02001759YS02001757 CONDUIT    869.29     0  02:04      1.11    0.62    1.00
  YS02001762YS02001759 CONDUIT    436.03     0  02:03      0.56    0.50    1.00
  YS02001765YS02001762 CONDUIT    436.02     0  02:03      0.56    0.41    1.00
  YS02001770YS02001767 CONDUIT    435.45     0  02:03      0.55    1.72    1.00
  YS02001774YS02001770 CONDUIT    713.91     0  02:57      0.91    0.46    1.00
  YS02001779YS02001774 CONDUIT    713.97     0  02:57      0.91    0.36    1.00
  YS02001649YS02001757 CONDUIT    991.11     0  01:58      1.26    0.60    1.00
  YS02001767YS02001765 CONDUIT    435.91     0  02:03      0.56    0.55    1.00
  YS02006561YS02001783 CONDUIT    968.30     0  02:16      2.19    0.50    1.00
  YS02001783YS02001784 CONDUIT    968.37     0  02:16      1.93    1.33    1.00
  YS02001784YS02001785 CONDUIT    969.32     0  02:15      1.93    2.26    1.00
  YS02001788YS02001790 CONDUIT    969.54     0  02:15      2.41    0.71    1.00
  YS02001790YS02001791 CONDUIT    969.70     0  02:15      2.89    1.06    1.00
  YS02001791YS02001793 CONDUIT    969.81     0  02:15      5.77    0.42    1.00
  YS02001910YS02001907 CONDUIT    630.11     0  01:58      0.80    0.36    1.00
  YS02001786YS02001788 CONDUIT    969.43     0  02:15      2.30    1.87    1.00
  YS02001915YS02001910 CONDUIT    630.08     0  01:58      0.80    0.31    1.00
  YS02001918YS02001915 CONDUIT    359.42     0  01:58      0.46    0.20    1.00
  YS02001923YS02001920 CONDUIT    355.93     0  01:58      0.78    0.16    1.00
  YS02001926YS02001923 CONDUIT    307.64     0  01:57      0.87    0.44    1.00
  YS02001929YS02001926 CONDUIT    225.08     0  01:58      0.93    0.11    0.97
  YS02001920YS02001918 CONDUIT    358.99     0  01:58      0.76    0.35    1.00
  YS02001629YS02163301 CONDUIT    228.79     0  01:48      0.29    0.28    1.00
  YS02001619YS02001622 CONDUIT    336.76     0  02:16      0.76    0.50    1.00
  YS02001622YS02001625 CONDUIT    336.59     0  02:16      0.43    0.18    1.00
  YS02001625YS02001629 CONDUIT    209.54     0  01:47      0.31    0.10    1.00
  YS02163301YS02001633 CONDUIT    228.49     0  01:48      0.29    0.21    1.00
  YS02163601YS02164001 CONDUIT    424.72     0  01:51      0.54    0.38    1.00
  YS02164001YS02001641 CONDUIT    424.71     0  01:51      0.54    0.58    1.00
  YS02001641YS02001644 CONDUIT    425.21     0  01:51      0.54    1.37    1.00
  YS02001647YS02001649 CONDUIT    810.01     0  02:56      1.03    0.43    1.00
  YS02006553YS02006556 CONDUIT    683.34     0  03:22      0.87    0.58    1.00
  YS02006556YS02006558 CONDUIT    683.98     0  03:22      0.87    0.54    1.00
  YSB6556YSB1171       CONDUIT     43.98     0  01:54      0.13    0.05    0.82
  YS02001907YS02006553 CONDUIT    683.10     0  03:22      0.76    0.80    1.00
  YS02006558YS02006561 CONDUIT    994.78     0  01:54      3.59    2.20    1.00
  YS02001633YS02163601 CONDUIT    424.89     0  01:51      0.54    0.45    1.00
  YS02001644YS02001647 CONDUIT    810.13     0  02:56      1.03    0.48    1.00
  YS02001745YS02001748 CONDUIT    396.77     0  02:15      1.73    0.15    0.98
  YS02001748YS02001751 CONDUIT    396.94     0  02:15      1.25    0.20    1.00
  YS02001751YS02001754 CONDUIT    396.75     0  02:15      1.02    0.19    1.00
  YS02001754YS02001757 CONDUIT    397.33     0  02:15      0.51    0.16    1.00
  YS02001882YS02001884 CONDUIT     26.91     0  01:54      0.12    0.03    1.00
  YS02001884YS02001887 CONDUIT     47.18     0  01:52      0.09    0.06    1.00
  YS02001890YS02001895 CONDUIT    517.17     0  02:27      0.66    0.24    1.00
  YS02001895YS02001898 CONDUIT    517.20     0  02:27      0.66    0.90    1.00
  YS02001898YS02001901 CONDUIT    517.19     0  02:27      0.66    0.33    1.00
  YS02001901YS02001904 CONDUIT    517.21     0  02:27      0.66    0.80    1.00
  YS02001904YS02001907 CONDUIT    517.22     0  02:27      0.66    0.18    1.00
  YS02001887YS02001890 CONDUIT    606.11     0  02:16      0.77    1.04    1.00
  YS02001652YS02001649 CONDUIT    479.20     0  02:12      0.61    0.24    1.00
  YS02001655YS02001652 CONDUIT    478.95     0  02:12      1.09    0.23    1.00
  YS02001658YS02001655 CONDUIT    478.43     0  02:12      1.45    0.20    1.00
  YS02001661YS02001658 CONDUIT    506.38     0  02:11      1.85    0.20    1.00
  YS02001664YS02001661 CONDUIT    770.26     0  02:05      1.75    0.24    0.77
  YSB1154YSB6556       CONDUIT     43.64     0  01:53      0.17    0.08    0.72
  YSB1174YSB1171       CONDUIT     35.15     0  01:50      0.10    0.05    0.83
  YSB1171HS02004479    CONDUIT     78.00     0  01:53      0.54    0.05    0.67
  HS02004881HS02006253 CONDUIT    139.58     0  01:55      2.33    0.03    0.27
  YS02001793JiankangQianchi CONDUIT    969.94     0  02:15      9.85    0.08    1.00
  YS02001757CaochengTiaoxuchi CONDUIT   2135.02     0  02:03      3.70    0.94    1.00
  WSF200WS02003060     CONDUIT    813.70     0  01:59      2.16    0.18    0.40
  1                    CONDUIT   1098.06     0  02:05      3.41    0.38    0.43
  2                    CONDUIT    193.76     0  01:52      5.80    0.46    0.48
  3                    CONDUIT    603.12     0  02:00     10.03    0.96    0.79
  4                    CONDUIT      0.00     0  00:00      0.00    0.00    0.00
  CC-Pump-1            PUMP       200.00     0  02:20              1.00
  CC-Pump-2            PUMP       200.00     0  04:10              1.00
  JK-Pump-1            PUMP       300.00     0  01:50              1.00
  JK-Pump-2            PUMP       300.00     0  02:00              1.00
  XR-Pump-1            PUMP        95.00     0  00:00              1.00
  XR-Pump-2            PUMP        95.00     0  00:00              1.00
  XR-Pump-3            PUMP        95.00     0  00:00              1.00
  XR-Pump-4            PUMP        95.00     0  04:10              1.00
  
  
  ***************************
  Flow Classification Summary
  ***************************
  
  -------------------------------------------------------------------------------------
                      Adjusted    ---------- Fraction of Time in Flow Class ---------- 
                       /Actual         Up    Down  Sub   Sup   Up    Down  Norm  Inlet 
  Conduit               Length    Dry  Dry   Dry   Crit  Crit  Crit  Crit  Ltd   Ctrl  
  -------------------------------------------------------------------------------------
  WS02003066WSF200        1.00   0.04  0.00  0.00  0.00  0.96  0.00  0.00  0.72  0.00
  WS02006287WS02006284    1.00   0.04  0.01  0.00  0.64  0.32  0.00  0.00  0.65  0.00
  WS02006284WS02006280    1.00   0.04  0.00  0.00  0.00  0.00  0.00  0.96  0.00  0.00
  WS02006280WS02006229    1.00   0.04  0.00  0.00  0.00  0.00  0.00  0.96  0.00  0.00
  WS02006229WS02006228    1.00   0.00  0.00  0.00  1.00  0.00  0.00  0.00  0.00  0.00
  WS02006256WS02006235    1.00   0.00  0.00  0.00  1.00  0.00  0.00  0.00  0.00  0.00
  WS02006253WS02006251    1.00   0.02  0.01  0.00  0.96  0.00  0.00  0.00  0.00  0.00
  WS02006252WS02006251    1.00   0.06  0.00  0.00  0.00  0.00  0.94  0.00  0.00  0.00
  WS02006251WS02006249    1.00   0.00  0.00  0.00  1.00  0.00  0.00  0.00  0.24  0.00
  WS02006249WS02006248    1.00   0.00  0.00  0.00  0.87  0.00  0.12  0.00  0.00  0.00
  WS02006248WS02006247    1.00   0.00  0.00  0.00  0.98  0.00  0.00  0.02  0.16  0.00
  WS02006247WS02006245    1.00   0.00  0.00  0.00  0.98  0.00  0.00  0.01  0.00  0.00
  WS02006245WS02006243    1.00   0.01  0.00  0.00  0.96  0.00  0.00  0.04  0.02  0.00
  WS02006243WS02006242    1.00   0.01  0.00  0.00  0.99  0.00  0.00  0.00  0.20  0.00
  WS02006242WS02006240    1.00   0.01  0.00  0.00  0.99  0.00  0.00  0.00  0.00  0.00
  WS02006240WS02006239    1.00   0.00  0.00  0.00  0.97  0.00  0.00  0.02  0.02  0.00
  WS02006239WS02006238    1.00   0.00  0.00  0.00  1.00  0.00  0.00  0.00  0.05  0.00
  WS02006238WS02006235    1.00   0.00  0.00  0.00  1.00  0.00  0.00  0.00  0.00  0.00
  WS02006235WS02006234    1.00   0.00  0.00  0.00  0.98  0.00  0.02  0.00  0.00  0.00
  WS02006234WS02006232    1.00   0.00  0.00  0.00  1.00  0.00  0.00  0.00  0.01  0.00
  WS02006232WS02006231    1.00   0.00  0.00  0.00  0.99  0.00  0.00  0.00  0.00  0.00
  WS02006231WS02006230    1.00   0.01  0.00  0.00  0.56  0.00  0.44  0.00  0.00  0.00
  WS02006230WS02006229    1.00   0.00  0.00  0.00  0.99  0.00  0.00  0.01  0.00  0.00
  WS02006228WS02006109    1.00   0.00  0.00  0.00  1.00  0.00  0.00  0.00  0.00  0.00
  WS02006116WS02004401    1.00   0.02  0.00  0.00  0.98  0.00  0.00  0.00  0.00  0.00
  WS02006115WS02006116    1.00   0.02  0.00  0.00  0.97  0.00  0.00  0.00  0.00  0.00
  WS02006113WS02006111    1.00   0.01  0.00  0.00  0.07  0.92  0.00  0.00  0.15  0.00
  WS02006112WS02006115    1.00   0.02  0.01  0.00  0.97  0.00  0.00  0.00  0.00  0.00
  WS02006111WS02006112    1.00   0.02  0.00  0.00  0.98  0.00  0.00  0.00  0.86  0.00
  WS02006110WS02006113    1.00   0.00  0.01  0.00  0.99  0.00  0.00  0.00  0.00  0.00
  WS02006109WS02006110    1.00   0.00  0.00  0.00  1.00  0.00  0.00  0.00  0.00  0.00
  WS02004411WS02004412    1.00   0.03  0.00  0.00  0.97  0.00  0.00  0.00  0.00  0.00
  WS02004401WS02004402    1.00   0.02  0.00  0.00  0.98  0.00  0.00  0.00  0.00  0.00
  WS02004413WS02003067    1.00   0.03  0.01  0.00  0.00  0.00  0.96  0.00  0.00  0.00
  WS02004412WS02004413    1.00   0.03  0.00  0.00  0.97  0.00  0.00  0.00  0.01  0.00
  WS02004410WS02004411    1.00   0.03  0.00  0.00  0.97  0.00  0.00  0.00  0.00  0.00
  WS02004409WS02004410    1.00   0.03  0.00  0.00  0.97  0.00  0.00  0.00  0.02  0.00
  WS02004407WS02004409    1.00   0.03  0.00  0.00  0.97  0.00  0.00  0.00  0.92  0.00
  WS02004406WS02004407    1.00   0.00  0.03  0.00  0.97  0.00  0.00  0.00  0.00  0.00
  WS02004405WS02004406    1.00   0.00  0.00  0.00  1.00  0.00  0.00  0.00  0.03  0.00
  WS02004404WS02004405    1.00   0.00  0.00  0.00  1.00  0.00  0.00  0.00  0.00  0.00
  WS02004403WS02004404    1.00   0.00  0.03  0.00  0.97  0.00  0.00  0.00  0.00  0.00
  WS02004402WS02004403    1.00   0.03  0.00  0.00  0.97  0.00  0.00  0.00  0.00  0.00
  WS02004139WS02001211    1.00   0.00  0.00  0.00  1.00  0.00  0.00  0.00  0.00  0.00
  WS02004138WS02004139    1.00   0.00  0.00  0.00  1.00  0.00  0.00  0.00  1.00  0.00
  WS02003067WS02003066    1.00   0.04  0.00  0.00  0.96  0.00  0.00  0.00  0.00  0.00
  WS02001213WS02003059    1.00   0.00  0.00  0.00  1.00  0.00  0.00  0.00  0.00  0.00
  WS02001212WS02001213    1.00   0.00  0.00  0.00  0.84  0.00  0.16  0.00  0.00  0.00
  WS02001211WS02001212    1.00   0.00  0.00  0.00  1.00  0.00  0.00  0.00  0.00  0.00
  WS02003072WS02003073    1.00   0.00  0.00  0.00  0.00  0.00  0.00  1.00  0.00  0.00
  WS02003069WS02003072    1.00   0.00  0.00  0.00  1.00  0.00  0.00  0.00  0.21  0.00
  WS02003060WS02003069    1.00   0.00  0.00  0.00  1.00  0.00  0.00  0.00  0.08  0.00
  WS02003059WS02003060    1.00   0.00  0.00  0.00  1.00  0.00  0.00  0.00  0.01  0.00
  HS02004901HS02004770    1.00   0.04  0.00  0.00  0.96  0.00  0.00  0.00  0.00  0.00
  HS02004876HS02004881    1.00   0.00  0.00  0.00  0.85  0.15  0.00  0.00  0.00  0.00
  HS02004870HS02004876    1.00   0.00  0.00  0.00  1.00  0.00  0.00  0.00  0.95  0.00
  HS02004842HS02004848    1.00   0.00  0.04  0.00  0.96  0.00  0.00  0.00  0.57  0.00
  HS02004837HS02004842    1.00   0.00  0.00  0.00  1.00  0.00  0.00  0.00  0.11  0.00
  HS02004830HS02004837    1.00   0.00  0.00  0.00  1.00  0.00  0.00  0.00  0.99  0.00
  HS02004824HS02004830    1.00   0.00  0.00  0.00  1.00  0.00  0.00  0.00  0.03  0.00
  HS02004817HS02004824    1.00   0.00  0.00  0.00  1.00  0.00  0.00  0.00  0.94  0.00
  HS02004770HS02004777    1.00   0.00  0.04  0.00  0.96  0.00  0.00  0.00  0.03  0.00
  HS02004799HS02004480    1.00   0.00  0.01  0.00  0.95  0.00  0.04  0.00  0.00  0.00
  HS02004792HS02004799    1.00   0.00  0.00  0.00  1.00  0.00  0.00  0.00  0.98  0.00
  HS02004788HS02004792    1.00   0.00  0.00  0.00  1.00  0.00  0.00  0.00  0.98  0.00
  HS02004785HS02004788    1.00   0.00  0.00  0.00  1.00  0.00  0.00  0.00  0.00  0.00
  HS02004777HS02004785    1.00   0.00  0.00  0.00  1.00  0.00  0.00  0.00  0.13  0.00
  HS02004480HS02004478    1.00   0.04  0.00  0.00  0.69  0.00  0.00  0.26  0.00  0.00
  HS02004479HS02004480    1.00   0.01  0.00  0.00  0.99  0.00  0.00  0.00  0.12  0.00
  HS02004862HS02004870    1.00   0.00  0.00  0.00  1.00  0.00  0.00  0.00  0.04  0.00
  HS02004848HS02004852    1.00   0.04  0.00  0.00  0.96  0.00  0.00  0.00  0.78  0.00
  HS02004856HS02004862    1.00   0.00  0.05  0.00  0.95  0.00  0.00  0.00  0.82  0.00
  HS02004852HS02004856    1.00   0.04  0.00  0.00  0.96  0.00  0.00  0.00  0.77  0.00
  HS02004802HS02004478    1.00   0.04  0.00  0.00  0.96  0.00  0.00  0.00  0.03  0.00
  HS02004478WS02006287    1.00   0.05  0.00  0.00  0.72  0.23  0.00  0.00  0.62  0.00
  HS02004817HS02004807    1.00   0.00  0.04  0.00  0.96  0.00  0.00  0.00  0.01  0.00
  HS02004807HS02004802    1.00   0.04  0.00  0.00  0.96  0.00  0.00  0.00  0.00  0.00
  YS02001759YS02001757    1.00   0.00  0.00  0.00  1.00  0.00  0.00  0.00  0.16  0.00
  YS02001762YS02001759    1.00   0.00  0.00  0.00  1.00  0.00  0.00  0.00  0.03  0.00
  YS02001765YS02001762    1.00   0.00  0.00  0.00  1.00  0.00  0.00  0.00  0.14  0.00
  YS02001770YS02001767    1.00   0.00  0.00  0.00  1.00  0.00  0.00  0.00  0.00  0.00
  YS02001774YS02001770    1.00   0.00  0.04  0.00  0.96  0.00  0.00  0.00  0.03  0.00
  YS02001779YS02001774    1.00   0.00  0.00  0.00  1.00  0.00  0.00  0.00  0.18  0.00
  YS02001649YS02001757    1.00   0.00  0.00  0.00  1.00  0.00  0.00  0.00  0.16  0.00
  YS02001767YS02001765    1.00   0.00  0.00  0.00  1.00  0.00  0.00  0.00  0.00  0.00
  YS02006561YS02001783    1.00   0.05  0.00  0.00  0.54  0.41  0.00  0.00  0.49  0.00
  YS02001783YS02001784    1.00   0.00  0.05  0.00  0.95  0.00  0.00  0.00  0.00  0.00
  YS02001784YS02001785    1.00   0.00  0.00  0.00  1.00  0.00  0.00  0.00  0.17  0.00
  YS02001788YS02001790    1.00   0.00  0.00  0.00  0.63  0.37  0.00  0.00  0.42  0.00
  YS02001790YS02001791    1.00   0.00  0.00  0.00  0.59  0.41  0.00  0.00  0.28  0.00
  YS02001791YS02001793    1.00   0.00  0.00  0.00  0.63  0.37  0.00  0.00  0.05  0.00
  YS02001910YS02001907    1.00   0.00  0.00  0.00  0.99  0.00  0.00  0.00  0.12  0.00
  YS02001786YS02001788    1.00   0.00  0.00  0.00  0.60  0.40  0.00  0.00  0.00  0.00
  YS02001915YS02001910    1.00   0.00  0.00  0.00  0.99  0.01  0.00  0.00  0.16  0.00
  YS02001918YS02001915    1.00   0.00  0.00  0.00  1.00  0.00  0.00  0.00  0.52  0.00
  YS02001923YS02001920    1.00   0.00  0.00  0.00  1.00  0.00  0.00  0.00  0.74  0.00
  YS02001926YS02001923    1.00   0.00  0.03  0.00  0.23  0.00  0.74  0.00  0.00  0.00
  YS02001929YS02001926    1.00   0.00  0.04  0.00  0.96  0.00  0.00  0.00  0.66  0.00
  YS02001920YS02001918    1.00   0.00  0.00  0.00  1.00  0.00  0.00  0.00  0.00  0.00
  YS02001629YS02163301    1.00   0.04  0.00  0.00  0.95  0.00  0.00  0.00  0.00  0.00
  YS02001619YS02001622    1.00   0.04  0.00  0.00  0.96  0.00  0.00  0.00  0.00  0.00
  YS02001622YS02001625    1.00   0.04  0.00  0.00  0.96  0.00  0.00  0.00  0.05  0.00
  YS02001625YS02001629    1.00   0.04  0.01  0.00  0.94  0.00  0.01  0.00  0.00  0.00
  YS02163301YS02001633    1.00   0.00  0.04  0.00  0.96  0.00  0.00  0.00  0.00  0.00
  YS02163601YS02164001    1.00   0.00  0.03  0.00  0.97  0.00  0.00  0.00  0.00  0.00
  YS02164001YS02001641    1.00   0.00  0.03  0.00  0.97  0.00  0.00  0.00  0.06  0.00
  YS02001641YS02001644    1.00   0.00  0.00  0.00  1.00  0.00  0.00  0.00  0.00  0.00
  YS02001647YS02001649    1.00   0.00  0.05  0.00  0.95  0.00  0.00  0.00  0.01  0.00
  YS02006553YS02006556    1.00   0.00  0.00  0.00  1.00  0.00  0.00  0.00  0.03  0.00
  YS02006556YS02006558    1.00   0.00  0.00  0.00  1.00  0.00  0.00  0.00  0.00  0.00
  YSB6556YSB1171          1.00   0.01  0.03  0.00  0.96  0.00  0.00  0.00  0.00  0.00
  YS02001907YS02006553    1.00   0.00  0.00  0.00  1.00  0.00  0.00  0.00  0.00  0.00
  YS02006558YS02006561    1.00   0.05  0.00  0.00  0.26  0.69  0.00  0.00  0.42  0.00
  YS02001633YS02163601    1.00   0.00  0.00  0.00  1.00  0.00  0.00  0.00  0.15  0.00
  YS02001644YS02001647    1.00   0.00  0.05  0.00  0.95  0.00  0.00  0.00  0.00  0.00
  YS02001745YS02001748    1.00   0.00  0.00  0.00  0.93  0.00  0.00  0.07  0.01  0.00
  YS02001748YS02001751    1.00   0.00  0.00  0.00  0.98  0.02  0.00  0.00  0.14  0.00
  YS02001751YS02001754    1.00   0.00  0.00  0.00  0.95  0.00  0.00  0.05  0.01  0.00
  YS02001754YS02001757    1.00   0.00  0.00  0.00  1.00  0.00  0.00  0.00  0.18  0.00
  YS02001882YS02001884    1.00   0.04  0.00  0.00  0.95  0.00  0.00  0.00  0.00  0.00
  YS02001884YS02001887    1.00   0.03  0.01  0.00  0.96  0.00  0.00  0.00  0.00  0.00
  YS02001890YS02001895    1.00   0.00  0.05  0.00  0.95  0.00  0.00  0.00  0.00  0.00
  YS02001895YS02001898    1.00   0.05  0.00  0.00  0.95  0.00  0.01  0.00  0.00  0.00
  YS02001898YS02001901    1.00   0.05  0.00  0.00  0.95  0.00  0.00  0.00  0.01  0.00
  YS02001901YS02001904    1.00   0.05  0.00  0.00  0.95  0.00  0.00  0.00  0.00  0.00
  YS02001904YS02001907    1.00   0.00  0.05  0.00  0.95  0.00  0.00  0.00  0.00  0.00
  YS02001887YS02001890    1.00   0.00  0.00  0.00  0.99  0.00  0.01  0.00  0.00  0.00
  YS02001652YS02001649    1.00   0.00  0.00  0.00  1.00  0.00  0.00  0.00  0.16  0.00
  YS02001655YS02001652    1.00   0.00  0.00  0.00  0.95  0.00  0.00  0.05  0.01  0.00
  YS02001658YS02001655    1.00   0.00  0.04  0.00  0.94  0.02  0.00  0.00  0.02  0.00
  YS02001661YS02001658    1.00   0.04  0.00  0.00  0.93  0.03  0.00  0.00  0.00  0.00
  YS02001664YS02001661    1.00   0.04  0.00  0.00  0.94  0.02  0.00  0.00  0.11  0.00
  YSB1154YSB6556          1.00   0.04  0.00  0.00  0.96  0.00  0.00  0.00  0.02  0.00
  YSB1174YSB1171          1.00   0.02  0.01  0.00  0.97  0.00  0.00  0.00  0.00  0.00
  YSB1171HS02004479       1.00   0.01  0.00  0.00  0.97  0.00  0.00  0.01  0.11  0.00
  HS02004881HS02006253    1.00   0.02  0.00  0.00  0.69  0.03  0.00  0.25  0.54  0.00
  YS02001793JiankangQianchi    1.00   0.00  0.00  0.00  0.91  0.09  0.00  0.00  0.33  0.00
  YS02001757CaochengTiaoxuchi    1.00   0.00  0.06  0.00  0.88  0.06  0.00  0.00  0.00  0.00
  WSF200WS02003060        1.00   0.00  0.04  0.00  0.71  0.25  0.00  0.00  0.26  0.00
  1                       1.00   0.00  0.00  0.00  0.00  1.00  0.00  0.00  0.37  0.00
  2                       1.00   0.67  0.00  0.00  0.00  0.33  0.00  0.00  0.07  0.00
  3                       1.00   0.20  0.00  0.00  0.00  0.80  0.00  0.00  0.03  0.00
  4                       1.00   1.00  0.00  0.00  0.00  0.00  0.00  0.00  0.00  0.00
  
  
  *************************
  Conduit Surcharge Summary
  *************************
  
  ----------------------------------------------------------------------------
                                                           Hours        Hours 
                         --------- Hours Full --------   Above Full   Capacity
  Conduit                Both Ends  Upstream  Dnstream   Normal Flow   Limited
  ----------------------------------------------------------------------------
  WS02006229WS02006228        1.44      1.70      1.44      4.33         1.44
  WS02006256WS02006235        6.01      6.01      7.27      3.07         0.01
  WS02006252WS02006251        0.55      0.55      1.25      1.07         0.01
  WS02006251WS02006249        0.01      0.01      0.01      0.52         0.01
  WS02006249WS02006248        0.01      0.01      0.01      3.39         0.01
  WS02006248WS02006247        0.01      0.01      0.18      0.01         0.01
  WS02006247WS02006245        0.21      0.22      0.21      4.30         0.19
  WS02006245WS02006243        0.24      0.24      0.36      0.01         0.01
  WS02006243WS02006242        0.46      0.46      1.05      0.01         0.01
  WS02006242WS02006240        0.74      0.74      1.44      1.25         0.01
  WS02006240WS02006239        0.76      0.76      0.78      0.09         0.01
  WS02006239WS02006238        1.30      1.30      1.43      0.15         0.09
  WS02006238WS02006235        1.26      1.26      1.71      0.01         0.01
  WS02006235WS02006234        0.81      0.81      1.05      5.87         0.04
  WS02006234WS02006232        0.83      0.83      1.79      0.01         0.01
  WS02006232WS02006231        0.78      0.78      1.79      0.01         0.01
  WS02006231WS02006230        0.73      0.73      0.80      6.01         0.02
  WS02006230WS02006229        2.61      3.73      2.61      6.37         2.58
  WS02006228WS02006109        1.54      2.20      1.54      5.21         1.54
  WS02006116WS02004401        0.51      0.51      0.52      0.43         0.42
  WS02006115WS02006116        0.33      0.33      0.34      0.25         0.24
  WS02006112WS02006115        0.30      0.30      0.95      0.01         0.01
  WS02006111WS02006112        0.01      0.01      4.51      0.01         0.01
  WS02006110WS02006113        0.01      0.01      1.93      0.01         0.01
  WS02006109WS02006110        0.90      0.90      2.19      0.91         0.01
  WS02004411WS02004412        0.01      0.01      0.01      0.49         0.01
  WS02004401WS02004402        0.52      0.52      0.56      0.01         0.03
  WS02004410WS02004411        0.01      0.01      0.01      0.40         0.01
  WS02004409WS02004410        0.01      0.01      0.01      0.27         0.01
  WS02004406WS02004407        0.01      0.01      0.68      0.01         0.01
  WS02004405WS02004406        0.68      0.72      0.68      0.93         0.68
  WS02004404WS02004405        0.72      0.77      0.72      6.26         0.72
  WS02004403WS02004404        0.57      0.57      0.77      0.01         0.01
  WS02004402WS02004403        0.56      0.56      0.57      0.50         0.49
  WS02003072WS02003073        0.01      0.01      0.01      5.58         0.01
  HS02004876HS02004881        0.01      0.01      0.01      0.49         0.01
  HS02004785HS02004788        0.01      0.01      0.01      0.35         0.01
  HS02004480HS02004478        0.01      0.01      0.01      0.79         0.01
  YS02001759YS02001757        6.09      6.09      6.12      0.01         0.01
  YS02001762YS02001759        6.08      6.08      6.09      0.01         0.01
  YS02001765YS02001762        6.08      6.08      6.08      0.01         0.01
  YS02001770YS02001767        6.07      6.07      6.07      0.93         0.70
  YS02001774YS02001770        6.07      6.07      6.08      0.01         0.01
  YS02001779YS02001774        6.04      6.04      6.08      0.01         0.01
  YS02001649YS02001757        6.08      6.08      6.12      0.01         0.01
  YS02001767YS02001765        6.07      6.07      6.08      0.01         0.01
  YS02006561YS02001783        1.65      1.65      2.12      0.01         0.01
  YS02001783YS02001784        2.11      2.12      2.21      2.03         1.94
  YS02001784YS02001785        2.09      2.21      2.09      2.74         2.09
  YS02001788YS02001790        2.09      2.09      3.58      0.01         0.01
  YS02001790YS02001791        3.58      3.58      3.75      1.51         1.51
  YS02001791YS02001793        3.75      3.75      3.98      0.01         0.01
  YS02001910YS02001907        1.95      1.95      2.27      0.01         0.01
  YS02001786YS02001788        2.09      2.09      2.09      2.44         2.09
  YS02001915YS02001910        1.76      1.76      1.95      0.01         0.01
  YS02001918YS02001915        1.55      1.55      1.76      0.01         0.01
  YS02001923YS02001920        1.36      1.36      1.58      0.01         0.01
  YS02001926YS02001923        0.01      0.01      0.01      0.01         0.01
  YS02001929YS02001926        0.01      0.01      0.01      0.01         0.01
  YS02001920YS02001918        1.55      1.55      1.58      0.01         0.01
  YS02001629YS02163301        6.06      6.06      6.07      0.01         0.01
  YS02001619YS02001622        6.02      6.02      6.02      0.01         0.01
  YS02001622YS02001625        6.02      6.02      6.05      0.01         0.01
  YS02001625YS02001629        6.02      6.02      6.05      0.01         0.01
  YS02163301YS02001633        6.07      6.07      6.08      0.01         0.01
  YS02163601YS02164001        6.08      6.08      6.09      0.01         0.01
  YS02164001YS02001641        6.08      6.08      6.08      0.01         0.01
  YS02001641YS02001644        6.08      6.08      6.08      2.21         2.38
  YS02001647YS02001649        6.05      6.05      6.08      0.01         0.01
  YS02006553YS02006556        2.12      2.12      2.32      0.01         0.01
  YS02006556YS02006558        2.18      2.18      2.37      0.01         0.01
  YSB6556YSB1171              0.01      0.01      0.14      0.01         0.01
  YS02001907YS02006553        2.75      2.75      2.95      0.01         0.01
  YS02006558YS02006561        1.82      2.09      1.82      2.63         1.82
  YS02001633YS02163601        6.08      6.08      6.09      0.01         0.01
  YS02001644YS02001647        6.05      6.05      6.08      0.01         0.01
  YS02001745YS02001748        0.01      0.01      5.99      0.01         0.01
  YS02001748YS02001751        6.00      6.00      6.02      0.01         0.01
  YS02001751YS02001754        6.02      6.02      6.05      0.01         0.01
  YS02001754YS02001757        6.05      6.05      6.12      0.01         0.01
  YS02001882YS02001884        1.77      1.77      1.80      0.01         0.01
  YS02001884YS02001887        1.85      1.85      1.88      0.01         0.01
  YS02001890YS02001895        1.74      1.74      1.97      0.01         0.01
  YS02001895YS02001898        1.73      1.73      1.74      0.01         0.01
  YS02001898YS02001901        1.75      1.75      1.84      0.01         0.01
  YS02001901YS02001904        1.82      1.82      1.84      0.01         0.01
  YS02001904YS02001907        1.82      1.82      2.34      0.01         0.01
  YS02001887YS02001890        1.91      1.91      1.93      0.20         0.01
  YS02001652YS02001649        6.06      6.06      6.08      0.01         0.01
  YS02001655YS02001652        6.02      6.02      6.05      0.01         0.01
  YS02001658YS02001655        5.99      5.99      6.02      0.01         0.01
  YS02001661YS02001658        0.16      0.16      5.99      0.01         0.01
  YS02001664YS02001661        0.01      0.01      1.71      0.01         0.01
  YS02001793JiankangQianchi        3.93      3.93      6.10      0.01         0.01
  YS02001757CaochengTiaoxuchi        5.61      5.61      6.12      0.01         0.01
  
  
  ***************
  Pumping Summary
  ***************
  
  ---------------------------------------------------------------------------------------------------------
                                                  Min       Avg       Max     Total     Power    % Time Off
                        Percent   Number of      Flow      Flow      Flow    Volume     Usage    Pump Curve
  Pump                 Utilized   Start-Ups       LPS       LPS       LPS  10^6 ltr     Kw-hr    Low   High
  ---------------------------------------------------------------------------------------------------------
  CC-Pump-1               49.48           8      0.00    122.53    200.00     1.682      1.78    0.0    3.5
  CC-Pump-2               44.67           5      0.00    158.08    200.00     1.980      2.15    0.0    7.4
  JK-Pump-1               57.44           7      0.00    188.93    300.00     2.722     20.64    0.0    0.0
  JK-Pump-2               55.32           8      0.00    206.17    300.00     2.829     17.70    0.0    0.0
  XR-Pump-1               89.35           7      0.00     68.63     95.00     1.824     12.98    0.0    0.0
  XR-Pump-2               97.86           5      0.00     70.30     95.00     2.052     14.79    0.0    0.0
  XR-Pump-3               89.35           9      0.00     63.91     95.00     1.710     12.77    0.0    0.0
  XR-Pump-4               40.42           5      0.00     62.76     95.00     0.712      3.37    0.0    0.0
  

  Analysis begun on:  Wed Dec 22 10:33:14 2021
  Analysis ended on:  Wed Dec 22 10:33:18 2021
  Total elapsed time: 00:00:04