
  EPA STORM WATER MANAGEMENT MODEL - VERSION 5.1 (Build 5.3.0.dev0)
  --------------------------------------------------------------

  WARNING 04: minimum elevation drop used for Conduit WS02004404WS02004405
  WARNING 03: negative offset ignored for Link YS02001904YS02001907
  
  *********************************************************
  NOTE: The summary statistics displayed in this report are
  based on results found at every computational time step,  
  not just on results from each reporting time step.
  *********************************************************
  
  ****************
  Analysis Options
  ****************
  Flow Units ............... LPS
  Process Models:
    Rainfall/Runoff ........ YES
    RDII ................... NO
    Snowmelt ............... NO
    Groundwater ............ NO
    Flow Routing ........... YES
    Ponding Allowed ........ NO
    Water Quality .......... NO
  Infiltration Method ...... HORTON
  Flow Routing Method ...... DYNWAVE
  Surcharge Method ......... EXTRAN
  Starting Date ............ 08/28/2015 08:00:00
  Ending Date .............. 08/28/2015 15:50:00
  Antecedent Dry Days ...... 8.0
  Report Time Step ......... 00:01:00
  Wet Time Step ............ 00:01:00
  Dry Time Step ............ 00:01:00
  Routing Time Step ........ 5.00 sec
  Variable Time Step ....... YES
  Maximum Trials ........... 8
  Number of Threads ........ 4
  Head Tolerance ........... 0.001500 m
  
  
  **************************        Volume         Depth
  Runoff Quantity Continuity     hectare-m            mm
  **************************     ---------       -------
  Total Precipitation ......         7.641        16.729
  Evaporation Loss .........         0.000         0.000
  Infiltration Loss ........         1.880         4.117
  Surface Runoff ...........         4.668        10.221
  Final Storage ............         1.093         2.393
  Continuity Error (%) .....        -0.013
  
  
  **************************        Volume        Volume
  Flow Routing Continuity        hectare-m      10^6 ltr
  **************************     ---------     ---------
  Dry Weather Inflow .......         0.616         6.165
  Wet Weather Inflow .......         4.667        46.672
  Groundwater Inflow .......         0.000         0.000
  RDII Inflow ..............         0.000         0.000
  External Inflow ..........         0.102         1.024
  External Outflow .........         1.951        19.511
  Flooding Loss ............         2.927        29.267
  Evaporation Loss .........         0.000         0.000
  Exfiltration Loss ........         0.000         0.000
  Initial Stored Volume ....         0.076         0.761
  Final Stored Volume ......         0.653         6.530
  Continuity Error (%) .....        -1.258
  
  
  *************************
  Highest Continuity Errors
  *************************
  Node HS02004842 (12.71%)
  Node YS02001884 (8.76%)
  Node JK-storage (-5.84%)
  Node HS02004817 (2.32%)
  Node YSB1171 (2.18%)
  
  
  ***************************
  Time-Step Critical Elements
  ***************************
  Link 3 (44.87%)
  Link WS02006252WS02006251 (42.01%)
  Link WS02006280WS02006229 (4.30%)
  Link WS02006238WS02006235 (3.03%)
  
  
  ********************************
  Highest Flow Instability Indexes
  ********************************
  Link WS02006113WS02006111 (39)
  Link YS02001619YS02001622 (33)
  Link YS02163601YS02164001 (32)
  Link YS02001629YS02163301 (32)
  Link YS02163301YS02001633 (32)
  
  
  *************************
  Routing Time Step Summary
  *************************
  Minimum Time Step           :     0.50 sec
  Average Time Step           :     0.84 sec
  Maximum Time Step           :     5.00 sec
  Percent in Steady State     :    -0.00
  Average Iterations per Step :     4.20
  Percent Not Converging      :    17.26
  
  
  ***************************
  Subcatchment Runoff Summary
  ***************************
  
  ------------------------------------------------------------------------------------------------------------------------------
                            Total      Total      Total      Total     Imperv       Perv      Total       Total     Peak  Runoff
                           Precip      Runon       Evap      Infil     Runoff     Runoff     Runoff      Runoff   Runoff   Coeff
  Subcatchment                 mm         mm         mm         mm         mm         mm         mm    10^6 ltr      LPS
  ------------------------------------------------------------------------------------------------------------------------------
  sub0                      16.73       0.00       0.00       0.97      14.29       0.20      14.50        0.01     3.66   0.867
  sub1                      16.73       0.00       0.00       1.58      13.63       0.26      13.89        0.09    24.51   0.830
  sub2                      16.73       0.00       0.00       5.80       9.63       0.39      10.02        0.09    22.91   0.599
  sub3                      16.73       0.00       0.00       5.88       9.59       0.31       9.90        0.22    50.49   0.592
  sub4                      16.73       0.00       0.00       1.65      13.47       0.19      13.66        0.28    60.01   0.817
  sub5                      16.73       0.00       0.00       0.99      14.24       0.18      14.42        0.16    43.61   0.862
  sub7                      16.73       0.00       0.00       1.26      13.97       0.24      14.21        0.05    13.82   0.849
  sub8                      16.73       0.00       0.00       1.27      13.96       0.23      14.19        0.09    25.44   0.848
  sub9                      16.73       0.00       0.00       1.27      13.96       0.23      14.19        0.07    19.02   0.848
  sub10                     16.73       0.00       0.00       1.13      14.10       0.21      14.30        0.16    42.73   0.855
  sub11                     16.73       0.00       0.00       1.12      14.11       0.21      14.33        0.17    47.25   0.857
  sub12                     16.73       0.00       0.00       1.83      13.37       0.35      13.71        0.12    35.87   0.820
  sub14                     16.73       0.00       0.00       1.27      13.95       0.23      14.19        0.14    37.43   0.848
  sub15                     16.73       0.00       0.00       4.53      10.73       0.49      11.22        0.19    51.47   0.671
  sub16                     16.73       0.00       0.00       4.88      10.29       0.64      10.93        0.11    32.57   0.653
  sub17                     16.73       0.00       0.00       4.74      10.44       0.61      11.05        0.09    26.81   0.661
  sub22                     16.73       0.00       0.00       6.60       8.75       0.59       9.34        0.59   160.16   0.558
  sub23                     16.73       0.00       0.00       5.59       9.67       0.60      10.27        0.49   134.74   0.614
  sub60                     16.73       0.00       0.00       1.94      11.65       0.06      11.71        3.55   386.89   0.700
  sub61                     16.73       0.00       0.00       2.75      11.65       0.09      11.73        3.62   476.87   0.701
  sub62                     16.73       0.00       0.00       1.26      12.72       0.07      12.79        3.93   491.27   0.765
  sub63                     16.73       0.00       0.00       4.75      10.14       0.10      10.23        3.10   437.54   0.612
  sub64                     16.73       0.00       0.00       2.45      11.19       0.06      11.26        3.42   367.58   0.673
  sub65                     16.73       0.00       0.00       2.11      11.40       0.06      11.46        3.52   372.98   0.685
  sub66                     16.73       0.00       0.00       4.79       9.55       0.06       9.61        2.95   336.52   0.575
  sub67                     16.73       0.00       0.00       1.24      13.25       0.09      13.35        4.12   605.48   0.798
  sub68                     16.73       0.00       0.00       2.25      12.20       0.10      12.30        3.78   521.64   0.735
  sub69                     16.73       0.00       0.00       2.37      12.50       0.14      12.64        2.95   482.20   0.755
  sub70                     16.73      12.90       0.00       8.98      17.16       1.09      18.25        4.18   460.88   0.616
  sub71                     16.73       0.00       0.00       1.27      12.46       0.07      12.53        2.96   345.19   0.749
  sub72                     16.73       0.00       0.00       1.14      10.39       0.03      10.43        2.12   185.81   0.623
  sub73                     16.73      17.77       0.00       9.78      19.72       1.38      21.10        4.96   482.28   0.612
  sub74                     16.73       0.00       0.00      12.48       3.71       0.07       3.78        1.51   261.10   0.226
  
  
  ******************
  Node Depth Summary
  ******************
  
  ---------------------------------------------------------------------------------
                                 Average  Maximum  Maximum  Time of Max    Reported
                                   Depth    Depth      HGL   Occurrence   Max Depth
  Node                 Type       Meters   Meters   Meters  days hr:min      Meters
  ---------------------------------------------------------------------------------
  WS02001211           JUNCTION     0.63     0.76     5.60     0  02:01        0.76
  WS02001212           JUNCTION     0.36     0.50     5.56     0  02:01        0.50
  WS02001213           JUNCTION     0.60     0.78     5.54     0  02:00        0.78
  WS02003069           JUNCTION     0.44     0.65     5.23     0  02:00        0.65
  WS02003072           JUNCTION     0.50     0.70     5.07     0  02:01        0.70
  WS02003073           JUNCTION     0.30     0.43     4.50     0  02:01        0.43
  WS02003060           JUNCTION     0.39     0.57     5.50     0  02:00        0.57
  WS02003066           JUNCTION     0.24     0.36     5.92     0  01:56        0.36
  WS02003059           JUNCTION     0.66     0.84     5.52     0  02:00        0.84
  WS02003067           JUNCTION     0.59     0.79     6.11     0  01:56        0.79
  WS02004401           JUNCTION     0.70     1.14     7.14     0  01:51        1.13
  WS02004402           JUNCTION     0.73     1.14     7.10     0  01:51        1.13
  WS02004403           JUNCTION     0.75     1.12     7.05     0  01:51        1.11
  WS02004404           JUNCTION     0.83     1.17     7.02     0  01:51        1.17
  WS02004406           JUNCTION     0.83     1.12     6.95     0  01:50        1.11
  WS02004409           JUNCTION     0.52     0.87     6.64     0  01:55        0.87
  WS02004410           JUNCTION     0.54     0.86     6.58     0  01:56        0.86
  WS02004411           JUNCTION     0.55     0.86     6.54     0  01:56        0.86
  WS02004412           JUNCTION     0.56     0.84     6.48     0  01:56        0.84
  WS02004413           JUNCTION     0.72     0.98     6.45     0  01:56        0.98
  WS02004405           JUNCTION     0.82     1.15     7.00     0  01:51        1.15
  WS02006109           JUNCTION     0.79     1.28     7.90     0  01:54        1.28
  WS02006110           JUNCTION     0.78     1.13     7.71     0  01:54        1.13
  WS02006111           JUNCTION     0.25     0.64     7.35     0  01:52        0.64
  WS02006112           JUNCTION     0.88     1.41     7.29     0  01:54        1.40
  WS02006113           JUNCTION     0.36     0.63     7.53     0  01:53        0.63
  WS02006115           JUNCTION     0.60     1.09     7.22     0  01:52        1.08
  WS02006116           JUNCTION     0.68     1.14     7.18     0  01:51        1.14
  WS02006230           JUNCTION     0.77     1.49     8.24     0  01:47        1.41
  WS02006231           JUNCTION     0.51     1.11     8.24     0  01:47        1.04
  WS02006232           JUNCTION     0.65     1.21     8.25     0  01:47        1.13
  WS02006234           JUNCTION     0.56     1.20     8.36     0  01:47        1.02
  WS02006235           JUNCTION     0.59     1.22     8.39     0  01:47        1.02
  WS02006238           JUNCTION     0.62     1.26     8.40     0  01:47        1.05
  WS02006240           JUNCTION     0.51     1.41     8.71     0  01:47        0.93
  WS02006242           JUNCTION     0.57     1.55     8.82     0  01:46        0.97
  WS02006243           JUNCTION     0.44     1.48     8.90     0  01:47        0.84
  WS02006245           JUNCTION     0.42     1.48     8.97     0  01:47        0.80
  WS02006247           JUNCTION     0.44     1.10     8.60     0  01:47        0.79
  WS02006248           JUNCTION     0.38     0.76     8.34     0  01:47        0.71
  WS02006249           JUNCTION     0.41     0.71     8.30     0  01:50        0.71
  WS02006239           JUNCTION     0.57     1.36     8.56     0  01:47        1.00
  WS02006251           JUNCTION     0.40     0.81     8.48     0  01:50        0.80
  WS02006252           JUNCTION     0.34     0.59     8.83     0  01:49        0.59
  WS02006253           JUNCTION     0.43     0.84     8.48     0  01:50        0.83
  WS02006256           JUNCTION     1.05     2.35     9.28     0  00:00        1.24
  WS02004138           JUNCTION     0.14     0.19     7.44     0  06:10        0.19
  WS02004407           JUNCTION     0.23     0.37     6.68     0  01:54        0.37
  WS02006228           JUNCTION     0.80     1.41     8.06     0  01:54        1.40
  WS02006229           JUNCTION     0.78     1.45     8.14     0  01:53        1.45
  WS02006280           JUNCTION     0.07     0.25     8.52     0  01:55        0.25
  WS02006284           JUNCTION     0.38     0.64     9.04     0  01:55        0.64
  WS02006287           JUNCTION     0.11     0.38     9.33     0  01:54        0.38
  WSF200               JUNCTION     0.23     0.40     5.63     0  01:58        0.40
  HS02004901           JUNCTION     0.13     0.36    10.18     0  01:52        0.36
  HS02004881           JUNCTION     0.01     0.05     9.08     0  01:55        0.05
  HS02004876           JUNCTION     0.05     0.16     9.19     0  01:55        0.16
  HS02004870           JUNCTION     0.02     0.09     9.38     0  01:55        0.09
  HS02004862           JUNCTION     0.02     0.11     9.49     0  01:55        0.11
  HS02004856           JUNCTION     0.08     0.15     9.58     0  01:55        0.15
  HS02004852           JUNCTION     0.01     0.07     9.59     0  01:55        0.07
  HS02004848           JUNCTION     0.01     0.07     9.67     0  01:55        0.07
  HS02004842           JUNCTION     0.33     0.40     9.67     0  01:55        0.40
  HS02004837           JUNCTION     0.03     0.09     9.67     0  01:55        0.09
  HS02004830           JUNCTION     0.04     0.10     9.57     0  01:56        0.10
  HS02004824           JUNCTION     0.03     0.12     9.53     0  01:55        0.12
  HS02004817           JUNCTION     0.45     0.69     9.53     0  01:55        0.69
  HS02004807           JUNCTION     0.14     0.36     9.53     0  01:55        0.36
  HS02004802           JUNCTION     0.17     0.39     9.52     0  01:55        0.39
  HS02004799           JUNCTION     0.13     0.45     9.66     0  01:53        0.45
  HS02004792           JUNCTION     0.04     0.20     9.73     0  01:52        0.20
  HS02004788           JUNCTION     0.03     0.15    10.05     0  01:53        0.15
  HS02004785           JUNCTION     0.05     0.23    10.14     0  01:52        0.23
  HS02004777           JUNCTION     0.16     0.37    10.17     0  01:52        0.37
  HS02004770           JUNCTION     0.13     0.35    10.18     0  01:52        0.35
  HS02004480           JUNCTION     0.09     0.37     9.61     0  01:53        0.37
  HS02004479           JUNCTION     0.13     0.41     9.61     0  01:53        0.41
  HS02004478           JUNCTION     0.07     0.27     9.50     0  01:54        0.27
  YS02001745           JUNCTION     0.77     0.95     8.47     0  02:55        0.95
  YS02001748           JUNCTION     1.18     1.39     8.46     0  02:55        1.39
  YS02001751           JUNCTION     1.36     1.96     8.84     0  01:48        1.58
  YS02001754           JUNCTION     1.62     1.91     8.51     0  01:48        1.84
  YS02001762           JUNCTION     1.82     2.05     8.45     0  02:46        2.04
  YS02001765           JUNCTION     1.77     2.00     8.45     0  02:46        1.99
  YS02001767           JUNCTION     1.74     1.95     8.44     0  02:46        1.94
  YS02001770           JUNCTION     1.73     1.93     8.43     0  02:46        1.93
  YS02001774           JUNCTION     1.80     1.98     8.41     0  02:33        1.98
  YS02001779           JUNCTION     1.54     1.68     8.37     0  01:47        1.68
  YS02001882           JUNCTION     0.62     1.65     8.37     0  01:58        1.62
  YS02001884           JUNCTION     0.72     1.74     8.36     0  01:58        1.73
  YS02001759           JUNCTION     1.85     2.09     8.45     0  02:46        2.08
  YS02001887           JUNCTION     0.79     1.81     8.35     0  01:58        1.80
  YS02001890           JUNCTION     0.82     1.81     8.32     0  01:58        1.81
  YS02001898           JUNCTION     0.59     1.57     8.30     0  01:58        1.56
  YS02001901           JUNCTION     0.71     1.68     8.29     0  01:58        1.67
  YS02001904           JUNCTION     0.68     1.64     8.27     0  02:14        1.63
  YS02001907           JUNCTION     1.01     1.96     8.25     0  01:58        1.96
  YS02001910           JUNCTION     0.80     1.79     8.30     0  01:59        1.78
  YS02001915           JUNCTION     0.60     1.61     8.33     0  01:59        1.60
  YS02001918           JUNCTION     0.35     1.32     8.39     0  01:58        1.29
  YS02001619           JUNCTION     1.33     1.61     8.54     0  01:47        1.48
  YS02001629           JUNCTION     1.68     1.85     8.40     0  01:47        1.85
  YS02001641           JUNCTION     1.78     1.94     8.37     0  02:06        1.93
  YS02001644           JUNCTION     1.78     1.92     8.35     0  01:50        1.92
  YS02001652           JUNCTION     1.63     2.11     8.71     0  02:18        1.95
  YS02001655           JUNCTION     1.39     2.20     9.05     0  01:48        1.85
  YS02001920           JUNCTION     0.45     1.40     8.41     0  01:59        1.37
  YS02001923           JUNCTION     0.28     1.16     8.42     0  01:59        1.14
  YS02001926           JUNCTION     0.32     1.01     8.46     0  01:59        0.97
  YS02001929           JUNCTION     0.19     0.77     8.46     0  01:59        0.71
  YS02001658           JUNCTION     1.12     2.18     9.32     0  02:18        1.73
  YS02001661           JUNCTION     0.88     2.40     9.80     0  02:18        1.54
  YS02001664           JUNCTION     0.39     0.57     8.49     0  03:59        0.57
  YS02001622           JUNCTION     1.35     1.62     8.52     0  01:47        1.50
  YS02001633           JUNCTION     1.77     1.95     8.40     0  01:50        1.94
  YS02001649           JUNCTION     1.83     2.05     8.44     0  01:54        2.05
  YS02001757           JUNCTION     1.95     2.19     8.45     0  02:46        2.18
  YS02001895           JUNCTION     0.58     1.57     8.31     0  02:13        1.56
  YS02001625           JUNCTION     1.63     1.78     8.38     0  01:46        1.78
  YS02163301           JUNCTION     1.71     1.90     8.42     0  01:49        1.88
  YS02163601           JUNCTION     1.82     1.99     8.39     0  01:50        1.98
  YS02164001           JUNCTION     1.76     1.93     8.38     0  01:50        1.91
  YS02001647           JUNCTION     1.61     1.81     8.42     0  02:07        1.79
  YSB1154              JUNCTION     0.27     0.56     9.62     0  01:53        0.56
  YSB6556              JUNCTION     0.16     0.44     9.61     0  01:53        0.44
  YSB1174              JUNCTION     0.22     0.50     9.61     0  01:53        0.50
  YSB1171              JUNCTION     0.42     0.71     9.61     0  01:53        0.71
  YS02006553           JUNCTION     1.01     2.15     8.43     0  01:59        1.96
  YS02006561           JUNCTION     0.37     1.75     8.41     0  01:59        1.08
  YS02006556           JUNCTION     0.98     2.34     8.65     0  01:59        1.93
  YS02006558           JUNCTION     1.02     2.46     8.73     0  01:59        1.97
  YS02001783           JUNCTION     0.60     2.27     8.41     0  01:59        1.47
  YS02001784           JUNCTION     0.62     2.28     8.35     0  01:59        1.41
  YS02001786           JUNCTION     0.55     2.23     8.26     0  01:59        1.26
  YS02001788           JUNCTION     0.48     2.28     8.26     0  01:59        1.13
  YS02001790           JUNCTION     0.61     1.96     7.60     0  01:59        1.29
  YS02001791           JUNCTION     0.60     2.31     7.78     0  01:59        1.27
  YS02001793           JUNCTION     0.83     2.01     6.84     0  01:59        1.80
  WS02004139           JUNCTION     0.57     0.70     5.61     0  02:02        0.70
  WSC                  OUTFALL      0.30     0.43     1.10     0  02:02        0.43
  3                    OUTFALL      0.10     0.23     6.23     0  00:00        0.23
  4                    OUTFALL      0.02     0.21     7.21     0  01:50        0.21
  5                    OUTFALL      0.00     0.00     5.00     0  00:00        0.00
  JK-storage           STORAGE      2.90     5.80     6.60     0  01:59        5.80
  CC-storage           STORAGE      1.17     1.44     8.44     0  02:51        1.44
  XR-storage           STORAGE      7.38     7.72     5.72     0  02:02        7.72
  
  
  *******************
  Node Inflow Summary
  *******************
  
  -------------------------------------------------------------------------------------------------
                                  Maximum  Maximum                  Lateral       Total        Flow
                                  Lateral    Total  Time of Max      Inflow      Inflow     Balance
                                   Inflow   Inflow   Occurrence      Volume      Volume       Error
  Node                 Type           LPS      LPS  days hr:min    10^6 ltr    10^6 ltr     Percent
  -------------------------------------------------------------------------------------------------
  WS02001211           JUNCTION      7.35   368.31     0  06:10       0.207        6.33       0.607
  WS02001212           JUNCTION      0.00   355.30     0  06:11           0        6.29       0.320
  WS02001213           JUNCTION      0.00   350.67     0  06:11           0        6.27       0.361
  WS02003069           JUNCTION      0.32  1118.20     0  02:00     0.00902        15.3       0.184
  WS02003072           JUNCTION      0.00  1118.14     0  02:01           0        15.3       0.226
  WS02003073           JUNCTION      1.82  1120.01     0  02:01      0.0514        15.3       0.254
  WS02003060           JUNCTION     16.53  1117.85     0  01:59       0.466        15.3       0.175
  WS02003066           JUNCTION      0.00   823.49     0  01:56           0        8.67       0.046
  WS02003059           JUNCTION      0.00   346.91     0  06:12           0        6.26       0.640
  WS02003067           JUNCTION      0.00   823.39     0  01:56           0        8.68       0.097
  WS02004401           JUNCTION      0.00   825.91     0  01:54           0         8.9       0.232
  WS02004402           JUNCTION      0.00   825.94     0  01:53           0        8.88       0.220
  WS02004403           JUNCTION      0.00   825.92     0  01:53           0        8.86       0.200
  WS02004404           JUNCTION      0.16   826.10     0  01:54     0.00457        8.84       0.151
  WS02004406           JUNCTION      0.00   826.16     0  01:54           0        8.81       0.368
  WS02004409           JUNCTION      0.00   826.02     0  01:54           0        8.77       0.165
  WS02004410           JUNCTION      0.00   824.09     0  01:55           0        8.76       0.187
  WS02004411           JUNCTION      0.00   823.52     0  01:55           0        8.74       0.193
  WS02004412           JUNCTION      0.00   823.37     0  01:56           0        8.72       0.210
  WS02004413           JUNCTION      0.00   823.35     0  01:56           0        8.71       0.319
  WS02004405           JUNCTION      0.04   826.16     0  01:54     0.00107        8.83       0.229
  WS02006109           JUNCTION      1.23   800.46     0  01:51      0.0347        8.92       0.244
  WS02006110           JUNCTION      0.00   800.47     0  01:51           0         8.9       0.224
  WS02006111           JUNCTION      0.00   799.54     0  01:53           0        8.87       0.049
  WS02006112           JUNCTION     26.81   826.06     0  01:53      0.0948        8.96       0.305
  WS02006113           JUNCTION      0.00   800.54     0  01:51           0        8.88       0.110
  WS02006115           JUNCTION      0.00   826.06     0  01:53           0        8.93       0.219
  WS02006116           JUNCTION      0.00   826.05     0  01:54           0        8.92       0.212
  WS02006230           JUNCTION     10.28   400.43     0  05:32        0.29        6.23       0.190
  WS02006231           JUNCTION      0.00   391.53     0  05:31           0        5.95       0.227
  WS02006232           JUNCTION      0.00   391.71     0  05:31           0        5.97       0.274
  WS02006234           JUNCTION      0.00   393.80     0  05:31           0        5.98       0.137
  WS02006235           JUNCTION      0.00   393.27     0  05:31           0        6.07       0.175
  WS02006238           JUNCTION      0.00   312.11     0  06:40           0        4.25       0.152
  WS02006240           JUNCTION      0.00   332.57     0  03:21           0        4.24       0.278
  WS02006242           JUNCTION      0.00   342.41     0  03:21           0        4.25       0.341
  WS02006243           JUNCTION      0.00   350.51     0  03:21           0        4.24      -0.101
  WS02006245           JUNCTION      0.00   354.78     0  03:21           0        4.25       0.287
  WS02006247           JUNCTION      0.00   358.78     0  03:20           0        4.26       0.163
  WS02006248           JUNCTION      0.00   362.38     0  03:20           0        4.26       0.071
  WS02006249           JUNCTION      0.00   528.85     0  01:50           0        4.67       0.245
  WS02006239           JUNCTION      0.00   319.05     0  03:22           0        4.24       0.188
  WS02006251           JUNCTION      0.08   532.97     0  01:50     0.00217        4.71       0.185
  WS02006252           JUNCTION      0.00   400.00     0  06:30           0        4.14       0.011
  WS02006253           JUNCTION      3.66   142.87     0  01:54      0.0117       0.568       0.686
  WS02006256           JUNCTION      0.00   600.00     0  00:00           0        5.69       0.040
  WS02004138           JUNCTION      0.00   379.97     0  06:10           0        6.16       0.060
  WS02004407           JUNCTION      0.00   826.20     0  01:54           0        8.78       0.078
  WS02006228           JUNCTION      0.00   799.27     0  01:51           0         8.9       0.166
  WS02006229           JUNCTION      0.00   804.31     0  01:50           0        8.92       0.146
  WS02006280           JUNCTION      0.00   656.04     0  01:55           0         2.7       0.001
  WS02006284           JUNCTION      0.10   655.96     0  01:55      0.0027         2.7       0.039
  WS02006287           JUNCTION      0.00   655.81     0  01:54           0         2.7       0.027
  WSF200               JUNCTION      0.00   823.46     0  01:56           0        8.67       0.040
  HS02004901           JUNCTION     32.57    32.57     0  01:50       0.114       0.115       1.560
  HS02004881           JUNCTION     13.82   139.59     0  01:54      0.0479       0.529       0.051
  HS02004876           JUNCTION     24.51   126.37     0  01:54      0.0923       0.482       0.114
  HS02004870           JUNCTION     25.44   102.13     0  01:54      0.0907        0.39       0.028
  HS02004862           JUNCTION     23.11    77.53     0  01:55       0.099       0.299       0.058
  HS02004856           JUNCTION     19.02    54.51     0  01:55      0.0682       0.202       0.721
  HS02004852           JUNCTION      0.00    36.10     0  01:55           0       0.134       0.042
  HS02004848           JUNCTION     50.49    50.49     0  01:57       0.223       0.223       0.021
  HS02004842           JUNCTION      0.00    15.55     0  02:06           0       0.102      14.560
  HS02004837           JUNCTION     49.08    62.50     0  01:55       0.337       0.426       0.191
  HS02004830           JUNCTION      0.15    62.61     0  01:55     0.00423       0.416       0.297
  HS02004824           JUNCTION     60.06   122.21     0  01:58       0.286       0.702       0.077
  HS02004817           JUNCTION      0.60   124.03     0  01:59      0.0169       0.718       2.377
  HS02004807           JUNCTION     47.25   168.28     0  01:57       0.166       0.868       0.499
  HS02004802           JUNCTION      0.00   169.24     0  01:58           0       0.865       0.460
  HS02004799           JUNCTION     37.43   414.52     0  01:52       0.135        1.57       0.166
  HS02004792           JUNCTION    160.44   377.30     0  01:52       0.598        1.44       0.028
  HS02004788           JUNCTION     53.14   218.54     0  01:52        0.24       0.839       0.046
  HS02004785           JUNCTION      0.15   165.59     0  01:52     0.00423       0.601       0.083
  HS02004777           JUNCTION      0.03   165.80     0  01:51    0.000846       0.601       0.872
  HS02004770           JUNCTION    134.74   166.64     0  01:51        0.49       0.602       0.516
  HS02004480           JUNCTION      0.00   492.22     0  01:53           0        1.85       0.064
  HS02004479           JUNCTION      0.00    78.00     0  01:53           0       0.292       0.252
  HS02004478           JUNCTION      0.00   655.76     0  01:54           0         2.7       0.013
  YS02001745           JUNCTION    386.89   386.89     0  02:16        3.55        3.55       0.324
  YS02001748           JUNCTION      0.04   398.21     0  02:16     0.00127        3.54       0.653
  YS02001751           JUNCTION      0.01   397.64     0  02:16     0.00031        3.52       0.681
  YS02001754           JUNCTION      0.26   397.60     0  02:16     0.00733         3.5       0.702
  YS02001762           JUNCTION      0.00   438.72     0  02:04           0        2.39       0.883
  YS02001765           JUNCTION      0.00   438.48     0  02:04           0        2.39       1.021
  YS02001767           JUNCTION      0.54   438.66     0  02:04      0.0151        2.41       1.494
  YS02001770           JUNCTION    491.42   713.91     0  02:57        3.94        4.74       0.667
  YS02001774           JUNCTION      0.00   714.02     0  02:57           0        3.11       0.805
  YS02001779           JUNCTION      0.01   714.08     0  02:57    0.000141        3.08       0.502
  YS02001882           JUNCTION      0.00    19.57     0  01:52           0      0.0331       6.710
  YS02001884           JUNCTION      0.00    44.83     0  01:53           0      0.0695       9.605
  YS02001759           JUNCTION    476.91   874.50     0  02:04        3.62        5.18       0.439
  YS02001887           JUNCTION    605.93   606.39     0  02:16        4.13        4.16       0.205
  YS02001890           JUNCTION      0.00   606.45     0  02:16           0        4.11       0.227
  YS02001898           JUNCTION      0.00   524.95     0  01:58           0           4       0.066
  YS02001901           JUNCTION      0.00   526.16     0  01:58           0           4       0.174
  YS02001904           JUNCTION      0.00   526.84     0  01:58           0           4       0.155
  YS02001907           JUNCTION      0.00  1082.08     0  02:00           0        9.14       0.265
  YS02001910           JUNCTION      0.00   564.22     0  02:00           0        5.15       0.228
  YS02001915           JUNCTION    345.21   564.04     0  02:00        2.96        5.19       0.111
  YS02001918           JUNCTION      0.00   280.37     0  02:00           0        2.25       0.064
  YS02001619           JUNCTION    336.52   336.52     0  02:16        2.95        2.95       0.414
  YS02001629           JUNCTION      0.00   244.94     0  01:47           0        1.44       2.012
  YS02001641           JUNCTION      0.00   418.17     0  01:51           0        4.86       0.431
  YS02001644           JUNCTION    367.62  1535.12     0  02:58        3.42        12.5       0.209
  YS02001652           JUNCTION      0.00   481.38     0  02:11           0        3.05       0.745
  YS02001655           JUNCTION      0.15   480.97     0  02:11     0.00434        3.08       0.818
  YS02001920           JUNCTION      2.87   280.43     0  02:00      0.0809        2.23       0.131
  YS02001923           JUNCTION      0.04   292.01     0  02:00     0.00106        2.14       0.044
  YS02001926           JUNCTION      0.05   205.45     0  02:00     0.00147        2.13       0.154
  YS02001929           JUNCTION    185.81   185.81     0  03:01        2.12        2.12       0.030
  YS02001658           JUNCTION      0.00   511.22     0  02:10           0        3.09       0.755
  YS02001661           JUNCTION      0.00   779.53     0  02:06           0        3.76      -0.092
  YS02001664           JUNCTION    437.54   437.54     0  02:16         3.1        3.77       0.191
  YS02001622           JUNCTION      0.00   337.02     0  02:16           0        2.94       1.092
  YS02001633           JUNCTION    373.18   418.61     0  01:51        3.53        4.92       0.651
  YS02001649           JUNCTION      0.00   970.47     0  02:00           0        6.75       0.543
  YS02001757           JUNCTION      0.00  2140.59     0  02:04           0        10.4       0.893
  YS02001895           JUNCTION      0.00   524.13     0  01:58           0        4.01       0.127
  YS02001625           JUNCTION      0.00   336.72     0  02:16           0        2.91       1.364
  YS02163301           JUNCTION      0.00   225.88     0  01:48           0        1.44       1.674
  YS02163601           JUNCTION      0.11   418.41     0  01:51      0.0031        4.87       0.616
  YS02164001           JUNCTION      0.00   418.06     0  01:51           0        4.85       0.408
  YS02001647           JUNCTION      0.00   810.26     0  02:56           0        5.72       0.495
  YSB1154              JUNCTION     43.61    43.61     0  01:53       0.163       0.164       0.888
  YSB6556              JUNCTION      0.00    43.64     0  01:53           0       0.165       0.764
  YSB1174              JUNCTION     35.87    35.87     0  01:50        0.12        0.12       1.078
  YSB1171              JUNCTION      0.00    78.04     0  01:52           0       0.291       2.227
  YS02006553           JUNCTION      0.00   699.78     0  01:59           0        7.17       0.217
  YS02006561           JUNCTION      0.00  1142.40     0  01:59           0        10.9       0.006
  YS02006556           JUNCTION      0.00   700.04     0  01:59           0        7.17       0.158
  YS02006558           JUNCTION    522.52  1142.33     0  01:59        3.81        10.9       0.049
  YS02001783           JUNCTION      0.00  1141.40     0  01:59           0        10.9       0.023
  YS02001784           JUNCTION      1.06  1142.37     0  01:59      0.0299        10.9       0.037
  YS02001786           JUNCTION      0.06  1142.47     0  01:59     0.00159        10.9       0.034
  YS02001788           JUNCTION      0.07  1144.17     0  01:59       0.002        10.9       0.017
  YS02001790           JUNCTION      0.15  1139.81     0  01:58     0.00437        10.9       0.025
  YS02001791           JUNCTION      0.00  1196.86     0  01:58           0        10.9       0.007
  YS02001793           JUNCTION      0.00  1122.17     0  01:57           0        10.9       0.002
  WS02004139           JUNCTION      0.32   378.31     0  06:10     0.00905        6.16       0.593
  WSC                  OUTFALL       0.00  1120.19     0  02:02           0        15.3       0.000
  3                    OUTFALL       0.00   597.65     0  00:00           0        3.84       0.000
  4                    OUTFALL       0.00   340.19     0  01:50           0       0.399       0.000
  5                    OUTFALL       0.00     0.00     0  00:00           0           0       0.000 ltr
  JK-storage           STORAGE       0.00  1067.02     0  01:56           0        11.1      -5.517
  CC-storage           STORAGE       0.00  2140.52     0  02:04           0        8.02       0.811
  XR-storage           STORAGE     844.69   844.69     0  03:01        12.1        12.7      -0.001
  
  
  **********************
  Node Surcharge Summary
  **********************
  
  Surcharging occurs when water rises above the top of the highest conduit.
  ---------------------------------------------------------------------
                                               Max. Height   Min. Depth
                                   Hours       Above Crown    Below Rim
  Node                 Type      Surcharged         Meters       Meters
  ---------------------------------------------------------------------
  WS02004401           JUNCTION        0.43          0.140        1.520
  WS02004402           JUNCTION        0.47          0.140        1.600
  WS02004403           JUNCTION        0.47          0.123        1.907
  WS02004404           JUNCTION        0.62          0.170        2.610
  WS02004406           JUNCTION        0.56          0.121        2.329
  WS02004405           JUNCTION        0.59          0.152        2.648
  WS02006109           JUNCTION        2.05          0.463        1.357
  WS02006110           JUNCTION        0.93          0.217        1.633
  WS02006112           JUNCTION        0.97          0.410        1.270
  WS02006115           JUNCTION        0.26          0.076        2.174
  WS02006116           JUNCTION        0.30          0.084        2.206
  WS02006230           JUNCTION        0.55          0.410        1.160
  WS02006231           JUNCTION        0.55          0.403        1.127
  WS02006232           JUNCTION        2.02          0.512        0.968
  WS02006234           JUNCTION        0.60          0.479        0.761
  WS02006235           JUNCTION        1.07          0.512        0.778
  WS02006238           JUNCTION        1.39          0.536        0.894
  WS02006240           JUNCTION        0.40          0.703        0.687
  WS02006242           JUNCTION        0.82          0.820        0.000
  WS02006243           JUNCTION        0.30          0.770        0.000
  WS02006245           JUNCTION        0.21          0.774        0.076
  WS02006247           JUNCTION        0.20          0.393        0.367
  WS02006248           JUNCTION        0.01          0.038        0.342
  WS02006239           JUNCTION        0.49          0.616        0.674
  WS02006252           JUNCTION        1.63          0.192        0.908
  WS02006256           JUNCTION        0.01          1.050        0.000
  WS02006228           JUNCTION        1.94          0.577        1.623
  YS02001748           JUNCTION        5.99          0.307        0.883
  YS02001751           JUNCTION        6.02          0.960        0.240
  YS02001754           JUNCTION        6.05          0.855        0.295
  YS02001762           JUNCTION        6.09          1.051        0.099
  YS02001765           JUNCTION        6.08          0.998        0.102
  YS02001767           JUNCTION        6.07          0.951        0.079
  YS02001770           JUNCTION        6.07          0.901        0.019
  YS02001774           JUNCTION        6.08          0.984        0.066
  YS02001779           JUNCTION        6.04          0.680        0.000
  YS02001882           JUNCTION        1.76          0.651        0.179
  YS02001884           JUNCTION        1.80          0.685        0.185
  YS02001759           JUNCTION        6.09          1.088        0.122
  YS02001887           JUNCTION        1.87          0.762        0.188
  YS02001890           JUNCTION        1.90          0.760        0.000
  YS02001898           JUNCTION        1.72          0.535        0.205
  YS02001901           JUNCTION        1.84          0.678        0.192
  YS02001904           JUNCTION        1.82          0.638        0.212
  YS02001907           JUNCTION        2.27          0.950        0.000
  YS02001910           JUNCTION        1.95          0.790        0.310
  YS02001915           JUNCTION        1.75          0.613        0.387
  YS02001918           JUNCTION        1.51          0.324        0.486
  YS02001619           JUNCTION        6.02          0.610        0.000
  YS02001629           JUNCTION        6.02          0.470        0.000
  YS02001641           JUNCTION        6.08          0.935        0.165
  YS02001644           JUNCTION        6.08          0.920        0.000
  YS02001652           JUNCTION        6.05          1.082        0.048
  YS02001655           JUNCTION        6.02          1.200        0.000
  YS02001920           JUNCTION        1.55          0.401        0.739
  YS02001926           JUNCTION        0.01          0.012        0.888
  YS02001658           JUNCTION        5.99          1.179        0.121
  YS02001661           JUNCTION        0.22          1.330        0.060
  YS02001622           JUNCTION        6.02          0.620        0.000
  YS02001633           JUNCTION        6.08          0.931        0.129
  YS02001649           JUNCTION        6.08          1.050        0.000
  YS02001757           JUNCTION        6.12          1.189        0.021
  YS02001895           JUNCTION        1.74          0.567        0.183
  YS02001625           JUNCTION        6.05          0.780        0.000
  YS02163301           JUNCTION        6.07          0.899        0.131
  YS02163601           JUNCTION        6.09          0.994        0.086
  YS02164001           JUNCTION        6.08          0.925        0.175
  YS02001647           JUNCTION        6.05          0.808        0.092
  YS02006553           JUNCTION        2.31          1.147        0.043
  YS02006561           JUNCTION        1.59          0.952        0.198
  YS02006556           JUNCTION        2.11          1.297        0.053
  YS02006558           JUNCTION        2.09          1.360        0.040
  YS02001783           JUNCTION        2.12          1.467        0.133
  YS02001784           JUNCTION        2.20          1.478        0.012
  YS02001786           JUNCTION        2.05          1.430        0.000
  YS02001788           JUNCTION        2.01          1.480        0.000
  YS02001790           JUNCTION        2.83          1.157        0.000
  YS02001791           JUNCTION        2.98          1.507        0.413
  YS02001793           JUNCTION        3.19          1.011        1.589
  
  
  *********************
  Node Flooding Summary
  *********************
  
  Flooding refers to all water that overflows a node, whether it ponds or not.
  --------------------------------------------------------------------------
                                                             Total   Maximum
                                 Maximum   Time of Max       Flood    Ponded
                        Hours       Rate    Occurrence      Volume     Depth
  Node                 Flooded       LPS   days hr:min    10^6 ltr    Meters
  --------------------------------------------------------------------------
  WS02006242              0.01     95.90      0  01:46       0.000     0.000
  WS02006243              0.01     42.35      0  01:47       0.000     0.000
  WS02006256              0.01    406.11      0  00:00       0.001     0.000
  YS02001779              3.38    714.07      0  02:57       3.064     0.000
  YS02001890              0.55     89.64      0  02:15       0.099     0.000
  YS02001907              1.37    586.36      0  02:16       1.958     0.000
  YS02001619              0.01     81.37      0  01:48       0.000     0.000
  YS02001629              0.01    200.34      0  01:47       0.001     0.000
  YS02001644              5.28   1535.11      0  02:58      10.925     0.000
  YS02001655              0.01    103.91      0  01:48       0.000     0.000
  YS02001622              0.01     88.36      0  01:47       0.000     0.000
  YS02001649              0.05     33.24      0  02:18       0.001     0.000
  YS02001625              2.03    325.51      0  02:16       1.447     0.000
  YS02001786              0.01     67.84      0  01:59       0.000     0.000
  YS02001788              0.01    178.95      0  01:59       0.000     0.000
  YS02001790              0.01    210.92      0  01:59       0.000     0.000
  JK-storage              2.50   1014.82      0  01:59       6.105     0.000
  XR-storage              5.24    717.18      0  02:30       5.664     0.000
  
  
  **********************
  Storage Volume Summary
  **********************
  
  --------------------------------------------------------------------------------------------------
                         Average     Avg  Evap Exfil       Maximum     Max    Time of Max    Maximum
                          Volume    Pcnt  Pcnt  Pcnt        Volume    Pcnt     Occurrence    Outflow
  Storage Unit           1000 m3    Full  Loss  Loss       1000 m3    Full    days hr:min        LPS
  --------------------------------------------------------------------------------------------------
  JK-storage               0.146      50     0     0         0.291     100       0  01:59     600.00
  CC-storage               3.261      21     0     0         4.026      26       0  02:51     400.00
  XR-storage               0.885      96     0     0         0.926     100       0  02:02     379.97
  
  
  ***********************
  Outfall Loading Summary
  ***********************
  
  -----------------------------------------------------------
                         Flow       Avg       Max       Total
                         Freq      Flow      Flow      Volume
  Outfall Node           Pcnt       LPS       LPS    10^6 ltr
  -----------------------------------------------------------
  WSC                   99.99    582.75   1120.19      15.271
  3                     86.41    219.61    597.65       3.840
  4                     28.17     70.91    340.19       0.399
  5                      0.00      0.00      0.00       0.000
  -----------------------------------------------------------
  System                53.64    873.27   1590.10      19.511
  
  
  ********************
  Link Flow Summary
  ********************
  
  -----------------------------------------------------------------------------
                                 Maximum  Time of Max   Maximum    Max/    Max/
                                  |Flow|   Occurrence   |Veloc|    Full    Full
  Link                 Type          LPS  days hr:min     m/sec    Flow   Depth
  -----------------------------------------------------------------------------
  WS02003066WSF200     CONDUIT    823.46     0  01:56      2.96    0.14    0.30
  WS02006287WS02006284 CONDUIT    655.86     0  01:55      2.36    0.30    0.38
  WS02006284WS02006280 CONDUIT    656.04     0  01:55      2.59    0.27    0.36
  WS02006280WS02006229 CONDUIT    656.04     0  01:55      4.20    0.14    0.26
  WS02006229WS02006228 CONDUIT    799.27     0  01:51      1.59    2.65    1.00
  WS02006256WS02006235 CONDUIT    177.52     0  00:01      2.73    1.88    1.00
  WS02006253WS02006251 CONDUIT    149.52     0  01:53      0.59    0.45    1.00
  WS02006252WS02006251 CONDUIT    400.33     0  06:36      3.19    1.47    1.00
  WS02006251WS02006249 CONDUIT    528.85     0  01:50      1.37    1.52    1.00
  WS02006249WS02006248 CONDUIT    362.38     0  03:20      1.17    1.99    0.99
  WS02006248WS02006247 CONDUIT    358.78     0  03:20      1.14    0.78    1.00
  WS02006247WS02006245 CONDUIT    354.78     0  03:21      1.12    2.81    1.00
  WS02006245WS02006243 CONDUIT    350.51     0  03:21      1.17    1.04    1.00
  WS02006243WS02006242 CONDUIT    342.41     0  03:21      1.05    0.73    1.00
  WS02006242WS02006240 CONDUIT    332.57     0  03:21      0.99    1.32    1.00
  WS02006240WS02006239 CONDUIT    319.05     0  03:22      1.03    1.00    1.00
  WS02006239WS02006238 CONDUIT    312.11     0  06:40      0.92    1.00    1.00
  WS02006238WS02006235 CONDUIT    312.10     0  06:40      1.32    0.70    1.00
  WS02006235WS02006234 CONDUIT    393.80     0  05:31      1.04    4.15    1.00
  WS02006234WS02006232 CONDUIT    391.71     0  05:31      1.17    0.79    1.00
  WS02006232WS02006231 CONDUIT    391.53     0  05:31      1.07    0.82    1.00
  WS02006231WS02006230 CONDUIT    390.15     0  05:32      1.35    5.92    1.00
  WS02006230WS02006229 CONDUIT    400.01     0  05:33      1.04    8.90    1.00
  WS02006228WS02006109 CONDUIT    799.23     0  01:51      1.59    3.49    1.00
  WS02006116WS02004401 CONDUIT    825.91     0  01:54      1.05    1.14    1.00
  WS02006115WS02006116 CONDUIT    826.05     0  01:54      1.05    1.06    1.00
  WS02006113WS02006111 CONDUIT    799.54     0  01:53      2.65    0.96    0.80
  WS02006112WS02006115 CONDUIT    826.06     0  01:53      1.05    0.49    1.00
  WS02006111WS02006112 CONDUIT    800.24     0  01:53      1.81    0.38    0.89
  WS02006110WS02006113 CONDUIT    800.54     0  01:51      1.75    0.73    0.90
  WS02006109WS02006110 CONDUIT    800.47     0  01:51      1.59    1.54    1.00
  WS02004411WS02004412 CONDUIT    823.37     0  01:56      1.16    1.17    0.85
  WS02004401WS02004402 CONDUIT    825.94     0  01:53      1.05    0.99    1.00
  WS02004413WS02003067 CONDUIT    823.39     0  01:56      1.41    0.35    0.69
  WS02004412WS02004413 CONDUIT    823.35     0  01:56      1.10    0.55    0.91
  WS02004410WS02004411 CONDUIT    823.52     0  01:55      1.15    1.12    0.86
  WS02004409WS02004410 CONDUIT    824.09     0  01:55      1.15    1.07    0.87
  WS02004407WS02004409 CONDUIT    826.02     0  01:54      1.69    0.29    0.62
  WS02004406WS02004407 CONDUIT    826.20     0  01:54      1.44    0.37    0.69
  WS02004405WS02004406 CONDUIT    826.16     0  01:54      1.05    1.63    1.00
  WS02004404WS02004405 CONDUIT    826.12     0  01:54      1.05    8.09    1.00
  WS02004403WS02004404 CONDUIT    825.94     0  01:54      1.05    0.60    1.00
  WS02004402WS02004403 CONDUIT    825.92     0  01:53      1.05    1.19    1.00
  WS02004139WS02001211 CONDUIT    360.96     0  06:10      0.57    0.46    0.57
  WS02004138WS02004139 CONDUIT    377.99     0  06:10      2.39    0.08    0.41
  WS02003067WS02003066 CONDUIT    823.49     0  01:56      1.53    0.26    0.48
  WS02001213WS02003059 CONDUIT    346.91     0  06:12      0.59    0.57    0.80
  WS02001212WS02001213 CONDUIT    350.67     0  06:11      1.19    0.54    0.48
  WS02001211WS02001212 CONDUIT    355.30     0  06:11      0.73    0.27    0.63
  WS02003072WS02003073 CONDUIT   1118.18     0  02:01      1.84    2.42    0.53
  WS02003069WS02003072 CONDUIT   1118.14     0  02:01      1.72    0.54    0.56
  WS02003060WS02003069 CONDUIT   1117.88     0  02:00      1.94    0.44    0.51
  WS02003059WS02003060 CONDUIT    344.10     0  06:12      0.82    0.22    0.70
  HS02004901HS02004770 CONDUIT     31.96     0  01:52      0.09    0.12    0.51
  HS02004876HS02004881 CONDUIT    126.38     0  01:55      1.20    1.34    0.15
  HS02004870HS02004876 CONDUIT    102.10     0  01:55      0.82    0.07    0.18
  HS02004842HS02004848 CONDUIT     15.55     0  02:06      0.07    0.01    0.33
  HS02004837HS02004842 CONDUIT     15.96     0  02:07      0.41    0.01    0.35
  HS02004830HS02004837 CONDUIT     62.46     0  01:55      0.66    0.06    0.14
  HS02004824HS02004830 CONDUIT     62.57     0  01:56      0.62    0.08    0.16
  HS02004817HS02004824 CONDUIT    123.43     0  01:59      0.31    0.06    0.58
  HS02004770HS02004777 CONDUIT    165.77     0  01:51      0.46    0.30    0.52
  HS02004799HS02004480 CONDUIT    414.30     0  01:53      1.02    0.52    0.58
  HS02004792HS02004799 CONDUIT    377.20     0  01:52      1.15    0.23    0.47
  HS02004788HS02004792 CONDUIT    218.44     0  01:53      1.24    0.14    0.25
  HS02004785HS02004788 CONDUIT    165.54     0  01:53      0.86    1.25    0.27
  HS02004777HS02004785 CONDUIT    165.44     0  01:52      0.54    0.20    0.44
  HS02004480HS02004478 CONDUIT    492.13     0  01:53      1.52    2.07    0.46
  HS02004479HS02004480 CONDUIT     78.31     0  01:54      0.27    0.08    0.55
  HS02004862HS02004870 CONDUIT     77.52     0  01:55      0.79    0.08    0.14
  HS02004848HS02004852 CONDUIT     36.10     0  01:55      0.52    0.04    0.10
  HS02004856HS02004862 CONDUIT     54.46     0  01:55      0.59    0.05    0.13
  HS02004852HS02004856 CONDUIT     36.15     0  01:56      0.33    0.04    0.16
  HS02004802HS02004478 CONDUIT    170.22     0  01:58      0.53    0.15    0.47
  HS02004478WS02006287 CONDUIT    655.81     0  01:54      2.08    0.18    0.35
  HS02004817HS02004807 CONDUIT    125.36     0  01:59      0.24    0.07    0.75
  HS02004807HS02004802 CONDUIT    169.24     0  01:58      0.47    0.32    0.53
  YS02001759YS02001757 CONDUIT    874.57     0  02:04      1.11    0.62    1.00
  YS02001762YS02001759 CONDUIT    438.29     0  02:04      0.56    0.50    1.00
  YS02001765YS02001762 CONDUIT    438.72     0  02:04      0.56    0.41    1.00
  YS02001770YS02001767 CONDUIT    438.13     0  02:04      0.56    1.74    1.00
  YS02001774YS02001770 CONDUIT    714.02     0  02:57      0.91    0.46    1.00
  YS02001779YS02001774 CONDUIT    714.07     0  02:57      0.91    0.36    1.00
  YS02001649YS02001757 CONDUIT    970.35     0  02:00      1.24    0.59    1.00
  YS02001767YS02001765 CONDUIT    438.48     0  02:04      0.56    0.55    1.00
  YS02006561YS02001783 CONDUIT   1141.40     0  01:59      2.27    0.59    1.00
  YS02001783YS02001784 CONDUIT   1141.31     0  01:59      2.27    1.57    1.00
  YS02001784YS02001785 CONDUIT   1142.42     0  01:59      2.27    2.66    1.00
  YS02001788YS02001790 CONDUIT   1139.65     0  01:58      2.65    0.84    1.00
  YS02001790YS02001791 CONDUIT   1196.86     0  01:58      3.34    1.30    1.00
  YS02001791YS02001793 CONDUIT   1122.17     0  01:57      6.43    0.48    1.00
  YS02001910YS02001907 CONDUIT    564.17     0  02:00      0.72    0.32    1.00
  YS02001786YS02001788 CONDUIT   1144.10     0  01:59      2.44    2.20    1.00
  YS02001915YS02001910 CONDUIT    564.22     0  02:00      0.72    0.28    1.00
  YS02001918YS02001915 CONDUIT    280.21     0  02:00      0.46    0.15    1.00
  YS02001923YS02001920 CONDUIT    277.56     0  02:00      0.78    0.12    1.00
  YS02001926YS02001923 CONDUIT    291.97     0  02:00      0.87    0.42    0.96
  YS02001929YS02001926 CONDUIT    205.40     0  02:00      0.93    0.10    0.86
  YS02001920YS02001918 CONDUIT    280.37     0  02:00      0.75    0.27    1.00
  YS02001629YS02163301 CONDUIT    225.88     0  01:48      0.29    0.28    1.00
  YS02001619YS02001622 CONDUIT    337.02     0  02:16      0.76    0.50    1.00
  YS02001622YS02001625 CONDUIT    336.72     0  02:16      0.43    0.18    1.00
  YS02001625YS02001629 CONDUIT    211.59     0  01:47      0.31    0.10    1.00
  YS02163301YS02001633 CONDUIT    226.03     0  01:48      0.29    0.21    1.00
  YS02163601YS02164001 CONDUIT    418.06     0  01:51      0.53    0.37    1.00
  YS02164001YS02001641 CONDUIT    418.17     0  01:51      0.53    0.57    1.00
  YS02001641YS02001644 CONDUIT    418.42     0  01:51      0.53    1.35    1.00
  YS02001647YS02001649 CONDUIT    810.26     0  02:56      1.03    0.43    1.00
  YS02006553YS02006556 CONDUIT    700.04     0  01:59      0.89    0.60    1.00
  YS02006556YS02006558 CONDUIT    699.89     0  01:59      0.89    0.55    1.00
  YSB6556YSB1171       CONDUIT     43.98     0  01:54      0.13    0.05    0.82
  YS02001907YS02006553 CONDUIT    699.78     0  01:59      0.78    0.82    1.00
  YS02006558YS02006561 CONDUIT   1142.40     0  01:59      4.04    2.53    1.00
  YS02001633YS02163601 CONDUIT    418.30     0  01:51      0.53    0.44    1.00
  YS02001644YS02001647 CONDUIT    810.37     0  02:56      1.03    0.48    1.00
  YS02001745YS02001748 CONDUIT    398.17     0  02:16      1.73    0.15    0.98
  YS02001748YS02001751 CONDUIT    397.63     0  02:16      1.25    0.20    1.00
  YS02001751YS02001754 CONDUIT    397.34     0  02:16      1.03    0.19    1.00
  YS02001754YS02001757 CONDUIT    397.32     0  02:16      0.51    0.16    1.00
  YS02001882YS02001884 CONDUIT     19.57     0  01:52      0.12    0.02    1.00
  YS02001884YS02001887 CONDUIT     44.83     0  01:53      0.09    0.06    1.00
  YS02001890YS02001895 CONDUIT    524.13     0  01:58      0.67    0.24    1.00
  YS02001895YS02001898 CONDUIT    524.95     0  01:58      0.67    0.91    1.00
  YS02001898YS02001901 CONDUIT    526.16     0  01:58      0.67    0.34    1.00
  YS02001901YS02001904 CONDUIT    526.84     0  01:58      0.67    0.82    1.00
  YS02001904YS02001907 CONDUIT    527.89     0  01:58      0.67    0.18    1.00
  YS02001887YS02001890 CONDUIT    606.45     0  02:16      0.77    1.04    1.00
  YS02001652YS02001649 CONDUIT    482.53     0  02:12      0.61    0.24    1.00
  YS02001655YS02001652 CONDUIT    481.38     0  02:11      1.09    0.23    1.00
  YS02001658YS02001655 CONDUIT    480.82     0  02:11      1.45    0.20    1.00
  YS02001661YS02001658 CONDUIT    511.22     0  02:10      1.85    0.20    1.00
  YS02001664YS02001661 CONDUIT    779.53     0  02:06      1.75    0.24    0.77
  YSB1154YSB6556       CONDUIT     43.64     0  01:53      0.17    0.08    0.72
  YSB1174YSB1171       CONDUIT     35.15     0  01:50      0.10    0.05    0.83
  YSB1171HS02004479    CONDUIT     78.00     0  01:53      0.54    0.05    0.67
  HS02004881HS02006253 CONDUIT    139.58     0  01:55      2.41    0.03    0.39
  YS02001793JiankangQianchi CONDUIT   1067.02     0  01:56     14.95    0.08    1.00
  YS02001757CaochengTiaoxuchi CONDUIT   2140.52     0  02:04      3.76    0.94    1.00
  WSF200WS02003060     CONDUIT    822.70     0  01:56      1.97    0.18    0.40
  1                    CONDUIT   1120.19     0  02:02      3.43    0.39    0.43
  2                    CONDUIT    340.19     0  01:50      6.58    0.81    0.69
  3                    CONDUIT    597.65     0  00:00     10.05    0.95    0.86
  4                    CONDUIT      0.00     0  00:00      0.00    0.00    0.00
  CC-Pump-1            PUMP       200.00     0  04:00              1.00
  CC-Pump-2            PUMP       200.00     0  01:50              1.00
  JK-Pump-1            PUMP       300.00     0  00:00              1.00
  JK-Pump-2            PUMP       300.00     0  00:00              1.00
  XR-Pump-1            PUMP        95.00     0  00:20              1.00
  XR-Pump-2            PUMP        95.00     0  00:20              1.00
  XR-Pump-3            PUMP        95.00     0  00:20              1.00
  XR-Pump-4            PUMP        95.00     0  00:00              1.00
  
  
  ***************************
  Flow Classification Summary
  ***************************
  
  -------------------------------------------------------------------------------------
                      Adjusted    ---------- Fraction of Time in Flow Class ---------- 
                       /Actual         Up    Down  Sub   Sup   Up    Down  Norm  Inlet 
  Conduit               Length    Dry  Dry   Dry   Crit  Crit  Crit  Crit  Ltd   Ctrl  
  -------------------------------------------------------------------------------------
  WS02003066WSF200        1.00   0.07  0.00  0.00  0.00  0.93  0.00  0.00  0.64  0.00
  WS02006287WS02006284    1.00   0.03  0.01  0.00  0.64  0.31  0.00  0.00  0.65  0.00
  WS02006284WS02006280    1.00   0.04  0.00  0.00  0.00  0.00  0.00  0.96  0.00  0.00
  WS02006280WS02006229    1.00   0.04  0.00  0.00  0.00  0.02  0.00  0.94  0.00  0.00
  WS02006229WS02006228    1.00   0.00  0.00  0.00  0.98  0.00  0.00  0.02  0.00  0.00
  WS02006256WS02006235    1.00   0.00  0.00  0.00  1.00  0.00  0.00  0.00  0.00  0.00
  WS02006253WS02006251    1.00   0.02  0.01  0.00  0.96  0.00  0.00  0.00  0.00  0.00
  WS02006252WS02006251    1.00   0.06  0.00  0.00  0.00  0.00  0.94  0.00  0.00  0.00
  WS02006251WS02006249    1.00   0.00  0.00  0.00  1.00  0.00  0.00  0.00  0.18  0.00
  WS02006249WS02006248    1.00   0.00  0.02  0.00  0.93  0.00  0.05  0.00  0.00  0.00
  WS02006248WS02006247    1.00   0.02  0.00  0.00  0.97  0.00  0.00  0.01  0.08  0.00
  WS02006247WS02006245    1.00   0.02  0.00  0.00  0.97  0.00  0.00  0.02  0.00  0.00
  WS02006245WS02006243    1.00   0.02  0.00  0.00  0.95  0.00  0.00  0.03  0.01  0.00
  WS02006243WS02006242    1.00   0.01  0.00  0.00  0.99  0.00  0.00  0.00  0.22  0.00
  WS02006242WS02006240    1.00   0.01  0.00  0.00  0.99  0.00  0.00  0.00  0.00  0.00
  WS02006240WS02006239    1.00   0.00  0.00  0.00  0.97  0.00  0.00  0.03  0.02  0.00
  WS02006239WS02006238    1.00   0.00  0.00  0.00  1.00  0.00  0.00  0.00  0.07  0.00
  WS02006238WS02006235    1.00   0.00  0.00  0.00  1.00  0.00  0.00  0.00  0.00  0.00
  WS02006235WS02006234    1.00   0.00  0.00  0.00  0.97  0.00  0.03  0.00  0.00  0.00
  WS02006234WS02006232    1.00   0.00  0.00  0.00  1.00  0.00  0.00  0.00  0.04  0.00
  WS02006232WS02006231    1.00   0.00  0.00  0.00  0.99  0.00  0.01  0.00  0.00  0.00
  WS02006231WS02006230    1.00   0.00  0.00  0.00  0.66  0.00  0.34  0.00  0.00  0.00
  WS02006230WS02006229    1.00   0.00  0.00  0.00  0.98  0.00  0.00  0.02  0.01  0.00
  WS02006228WS02006109    1.00   0.00  0.00  0.00  1.00  0.00  0.00  0.00  0.01  0.00
  WS02006116WS02004401    1.00   0.02  0.00  0.00  0.98  0.00  0.00  0.00  0.00  0.00
  WS02006115WS02006116    1.00   0.02  0.00  0.00  0.97  0.00  0.00  0.01  0.01  0.00
  WS02006113WS02006111    1.00   0.02  0.00  0.00  0.05  0.93  0.00  0.00  0.12  0.00
  WS02006112WS02006115    1.00   0.02  0.00  0.00  0.98  0.00  0.00  0.00  0.00  0.00
  WS02006111WS02006112    1.00   0.02  0.00  0.00  0.98  0.00  0.00  0.00  0.90  0.00
  WS02006110WS02006113    1.00   0.01  0.00  0.00  0.98  0.00  0.00  0.00  0.00  0.00
  WS02006109WS02006110    1.00   0.00  0.01  0.00  0.98  0.00  0.00  0.00  0.00  0.00
  WS02004411WS02004412    1.00   0.05  0.00  0.00  0.95  0.00  0.00  0.00  0.00  0.00
  WS02004401WS02004402    1.00   0.02  0.00  0.00  0.98  0.00  0.00  0.00  0.00  0.00
  WS02004413WS02003067    1.00   0.05  0.01  0.00  0.00  0.00  0.94  0.00  0.00  0.00
  WS02004412WS02004413    1.00   0.05  0.00  0.00  0.95  0.00  0.00  0.00  0.00  0.00
  WS02004410WS02004411    1.00   0.05  0.00  0.00  0.95  0.00  0.00  0.00  0.00  0.00
  WS02004409WS02004410    1.00   0.05  0.00  0.00  0.95  0.00  0.00  0.00  0.00  0.00
  WS02004407WS02004409    1.00   0.05  0.00  0.00  0.95  0.01  0.00  0.00  0.80  0.00
  WS02004406WS02004407    1.00   0.00  0.05  0.00  0.95  0.00  0.00  0.00  0.00  0.00
  WS02004405WS02004406    1.00   0.00  0.00  0.00  1.00  0.00  0.00  0.00  0.02  0.00
  WS02004404WS02004405    1.00   0.00  0.00  0.00  1.00  0.00  0.00  0.00  0.00  0.00
  WS02004403WS02004404    1.00   0.00  0.02  0.00  0.98  0.00  0.00  0.00  0.02  0.00
  WS02004402WS02004403    1.00   0.02  0.00  0.00  0.98  0.00  0.00  0.00  0.00  0.00
  WS02004139WS02001211    1.00   0.00  0.00  0.00  0.99  0.00  0.01  0.00  0.00  0.00
  WS02004138WS02004139    1.00   0.00  0.00  0.00  0.98  0.01  0.00  0.00  1.00  0.00
  WS02003067WS02003066    1.00   0.06  0.01  0.00  0.93  0.00  0.00  0.00  0.00  0.00
  WS02001213WS02003059    1.00   0.00  0.01  0.00  0.99  0.00  0.00  0.00  0.00  0.00
  WS02001212WS02001213    1.00   0.01  0.00  0.00  0.90  0.00  0.08  0.00  0.00  0.00
  WS02001211WS02001212    1.00   0.00  0.01  0.00  0.99  0.00  0.00  0.00  0.00  0.00
  WS02003072WS02003073    1.00   0.00  0.00  0.00  0.00  0.00  0.00  1.00  0.00  0.00
  WS02003069WS02003072    1.00   0.00  0.00  0.00  0.99  0.01  0.00  0.00  0.21  0.00
  WS02003060WS02003069    1.00   0.00  0.00  0.00  0.98  0.02  0.00  0.00  0.08  0.00
  WS02003059WS02003060    1.00   0.00  0.00  0.00  0.99  0.01  0.00  0.00  0.02  0.00
  HS02004901HS02004770    1.00   0.04  0.00  0.00  0.96  0.00  0.00  0.00  0.00  0.00
  HS02004876HS02004881    1.00   0.02  0.00  0.00  0.86  0.13  0.00  0.00  0.00  0.00
  HS02004870HS02004876    1.00   0.01  0.00  0.00  0.99  0.00  0.00  0.00  0.95  0.00
  HS02004842HS02004848    1.00   0.00  0.04  0.00  0.96  0.00  0.00  0.00  0.57  0.00
  HS02004837HS02004842    1.00   0.00  0.00  0.00  0.99  0.01  0.00  0.00  0.11  0.00
  HS02004830HS02004837    1.00   0.00  0.00  0.00  1.00  0.00  0.00  0.00  0.99  0.00
  HS02004824HS02004830    1.00   0.00  0.00  0.00  1.00  0.00  0.00  0.00  0.03  0.00
  HS02004817HS02004824    1.00   0.00  0.00  0.00  1.00  0.00  0.00  0.00  0.94  0.00
  HS02004770HS02004777    1.00   0.00  0.04  0.00  0.96  0.00  0.00  0.00  0.03  0.00
  HS02004799HS02004480    1.00   0.00  0.02  0.00  0.96  0.00  0.02  0.00  0.00  0.00
  HS02004792HS02004799    1.00   0.00  0.00  0.00  0.99  0.01  0.00  0.00  0.98  0.00
  HS02004788HS02004792    1.00   0.00  0.00  0.00  0.99  0.01  0.00  0.00  0.98  0.00
  HS02004785HS02004788    1.00   0.00  0.00  0.00  1.00  0.00  0.00  0.00  0.00  0.00
  HS02004777HS02004785    1.00   0.00  0.00  0.00  1.00  0.00  0.00  0.00  0.13  0.00
  HS02004480HS02004478    1.00   0.04  0.00  0.00  0.71  0.00  0.00  0.25  0.00  0.00
  HS02004479HS02004480    1.00   0.02  0.00  0.00  0.98  0.00  0.00  0.00  0.12  0.00
  HS02004862HS02004870    1.00   0.00  0.00  0.00  1.00  0.00  0.00  0.00  0.04  0.00
  HS02004848HS02004852    1.00   0.04  0.00  0.00  0.96  0.00  0.00  0.00  0.78  0.00
  HS02004856HS02004862    1.00   0.00  0.04  0.00  0.96  0.00  0.00  0.00  0.82  0.00
  HS02004852HS02004856    1.00   0.04  0.00  0.00  0.96  0.00  0.00  0.00  0.77  0.00
  HS02004802HS02004478    1.00   0.04  0.00  0.00  0.96  0.00  0.00  0.00  0.03  0.00
  HS02004478WS02006287    1.00   0.04  0.00  0.00  0.77  0.19  0.00  0.00  0.62  0.00
  HS02004817HS02004807    1.00   0.00  0.04  0.00  0.96  0.00  0.00  0.00  0.01  0.00
  HS02004807HS02004802    1.00   0.04  0.00  0.00  0.96  0.00  0.00  0.00  0.00  0.00
  YS02001759YS02001757    1.00   0.00  0.00  0.00  1.00  0.00  0.00  0.00  0.16  0.00
  YS02001762YS02001759    1.00   0.00  0.00  0.00  1.00  0.00  0.00  0.00  0.03  0.00
  YS02001765YS02001762    1.00   0.00  0.00  0.00  1.00  0.00  0.00  0.00  0.14  0.00
  YS02001770YS02001767    1.00   0.00  0.00  0.00  1.00  0.00  0.00  0.00  0.00  0.00
  YS02001774YS02001770    1.00   0.00  0.03  0.00  0.96  0.00  0.00  0.00  0.03  0.00
  YS02001779YS02001774    1.00   0.00  0.00  0.00  1.00  0.00  0.00  0.00  0.18  0.00
  YS02001649YS02001757    1.00   0.00  0.00  0.00  1.00  0.00  0.00  0.00  0.16  0.00
  YS02001767YS02001765    1.00   0.00  0.00  0.00  1.00  0.00  0.00  0.00  0.00  0.00
  YS02006561YS02001783    1.00   0.05  0.00  0.00  0.41  0.54  0.00  0.00  0.47  0.00
  YS02001783YS02001784    1.00   0.00  0.05  0.00  0.95  0.00  0.00  0.00  0.00  0.00
  YS02001784YS02001785    1.00   0.00  0.00  0.00  1.00  0.00  0.00  0.00  0.17  0.00
  YS02001788YS02001790    1.00   0.00  0.00  0.00  0.50  0.50  0.00  0.00  0.44  0.00
  YS02001790YS02001791    1.00   0.00  0.00  0.00  0.46  0.54  0.00  0.00  0.37  0.00
  YS02001791YS02001793    1.00   0.00  0.00  0.00  0.46  0.54  0.00  0.00  0.01  0.00
  YS02001910YS02001907    1.00   0.00  0.00  0.00  0.98  0.00  0.00  0.02  0.12  0.00
  YS02001786YS02001788    1.00   0.00  0.00  0.00  0.47  0.53  0.00  0.00  0.00  0.00
  YS02001915YS02001910    1.00   0.00  0.00  0.00  0.99  0.01  0.00  0.00  0.16  0.00
  YS02001918YS02001915    1.00   0.00  0.01  0.00  0.99  0.00  0.00  0.00  0.52  0.00
  YS02001923YS02001920    1.00   0.00  0.00  0.00  1.00  0.00  0.00  0.00  0.74  0.00
  YS02001926YS02001923    1.00   0.00  0.03  0.00  0.21  0.00  0.77  0.00  0.00  0.00
  YS02001929YS02001926    1.00   0.00  0.04  0.00  0.96  0.00  0.00  0.00  0.66  0.00
  YS02001920YS02001918    1.00   0.00  0.01  0.00  0.99  0.00  0.00  0.00  0.00  0.00
  YS02001629YS02163301    1.00   0.04  0.00  0.00  0.96  0.00  0.00  0.00  0.00  0.00
  YS02001619YS02001622    1.00   0.04  0.00  0.00  0.96  0.00  0.00  0.00  0.00  0.00
  YS02001622YS02001625    1.00   0.04  0.00  0.00  0.96  0.00  0.00  0.00  0.05  0.00
  YS02001625YS02001629    1.00   0.04  0.01  0.00  0.94  0.00  0.01  0.00  0.00  0.00
  YS02163301YS02001633    1.00   0.00  0.04  0.00  0.96  0.00  0.00  0.00  0.00  0.00
  YS02163601YS02164001    1.00   0.00  0.03  0.00  0.97  0.00  0.00  0.00  0.00  0.00
  YS02164001YS02001641    1.00   0.01  0.02  0.00  0.97  0.00  0.00  0.00  0.06  0.00
  YS02001641YS02001644    1.00   0.00  0.01  0.00  0.99  0.00  0.00  0.00  0.00  0.00
  YS02001647YS02001649    1.00   0.00  0.04  0.00  0.96  0.00  0.00  0.00  0.01  0.00
  YS02006553YS02006556    1.00   0.02  0.00  0.00  0.98  0.00  0.00  0.00  0.03  0.00
  YS02006556YS02006558    1.00   0.00  0.00  0.00  1.00  0.00  0.00  0.00  0.00  0.00
  YSB6556YSB1171          1.00   0.02  0.01  0.00  0.96  0.00  0.00  0.00  0.00  0.00
  YS02001907YS02006553    1.00   0.00  0.01  0.00  0.98  0.00  0.00  0.00  0.00  0.00
  YS02006558YS02006561    1.00   0.05  0.00  0.00  0.23  0.72  0.00  0.00  0.42  0.00
  YS02001633YS02163601    1.00   0.00  0.01  0.00  0.99  0.00  0.00  0.00  0.15  0.00
  YS02001644YS02001647    1.00   0.00  0.04  0.00  0.96  0.00  0.00  0.00  0.00  0.00
  YS02001745YS02001748    1.00   0.00  0.00  0.00  0.93  0.00  0.00  0.07  0.01  0.00
  YS02001748YS02001751    1.00   0.00  0.00  0.00  0.98  0.02  0.00  0.00  0.14  0.00
  YS02001751YS02001754    1.00   0.00  0.00  0.00  0.95  0.00  0.00  0.05  0.01  0.00
  YS02001754YS02001757    1.00   0.00  0.00  0.00  0.99  0.01  0.00  0.00  0.18  0.00
  YS02001882YS02001884    1.00   0.04  0.00  0.00  0.96  0.00  0.00  0.00  0.00  0.00
  YS02001884YS02001887    1.00   0.02  0.01  0.00  0.97  0.00  0.00  0.00  0.00  0.00
  YS02001890YS02001895    1.00   0.00  0.04  0.00  0.96  0.00  0.00  0.00  0.00  0.00
  YS02001895YS02001898    1.00   0.04  0.00  0.00  0.95  0.00  0.01  0.00  0.00  0.00
  YS02001898YS02001901    1.00   0.04  0.00  0.00  0.96  0.00  0.00  0.00  0.01  0.00
  YS02001901YS02001904    1.00   0.04  0.00  0.00  0.96  0.00  0.00  0.00  0.00  0.00
  YS02001904YS02001907    1.00   0.00  0.04  0.00  0.96  0.00  0.00  0.00  0.00  0.00
  YS02001887YS02001890    1.00   0.00  0.00  0.00  0.98  0.00  0.02  0.00  0.00  0.00
  YS02001652YS02001649    1.00   0.00  0.00  0.00  1.00  0.00  0.00  0.00  0.16  0.00
  YS02001655YS02001652    1.00   0.00  0.00  0.00  0.95  0.00  0.00  0.05  0.01  0.00
  YS02001658YS02001655    1.00   0.00  0.04  0.00  0.94  0.02  0.00  0.00  0.02  0.00
  YS02001661YS02001658    1.00   0.04  0.00  0.00  0.92  0.04  0.00  0.00  0.00  0.00
  YS02001664YS02001661    1.00   0.04  0.00  0.00  0.93  0.03  0.00  0.00  0.11  0.00
  YSB1154YSB6556          1.00   0.04  0.00  0.00  0.96  0.00  0.00  0.00  0.02  0.00
  YSB1174YSB1171          1.00   0.02  0.01  0.00  0.97  0.00  0.00  0.00  0.00  0.00
  YSB1171HS02004479       1.00   0.02  0.00  0.00  0.98  0.00  0.00  0.00  0.11  0.00
  HS02004881HS02006253    1.00   0.02  0.00  0.00  0.73  0.04  0.00  0.20  0.60  0.00
  YS02001793JiankangQianchi    1.00   0.00  0.00  0.00  0.59  0.41  0.00  0.00  0.19  0.00
  YS02001757CaochengTiaoxuchi    1.00   0.00  0.06  0.00  0.89  0.06  0.00  0.00  0.00  0.00
  WSF200WS02003060        1.00   0.00  0.07  0.00  0.52  0.41  0.00  0.00  0.12  0.00
  1                       1.00   0.00  0.00  0.00  0.00  1.00  0.00  0.00  0.42  0.00
  2                       1.00   0.72  0.00  0.00  0.00  0.28  0.00  0.00  0.08  0.00
  3                       1.00   0.14  0.00  0.00  0.00  0.86  0.00  0.00  0.12  0.00
  4                       1.00   1.00  0.00  0.00  0.00  0.00  0.00  0.00  0.00  0.00
  
  
  *************************
  Conduit Surcharge Summary
  *************************
  
  ----------------------------------------------------------------------------
                                                           Hours        Hours 
                         --------- Hours Full --------   Above Full   Capacity
  Conduit                Both Ends  Upstream  Dnstream   Normal Flow   Limited
  ----------------------------------------------------------------------------
  WS02006229WS02006228        1.94      2.16      1.94      4.92         1.94
  WS02006256WS02006235        5.86      5.86      7.24      3.31         0.01
  WS02006253WS02006251        0.11      0.11      0.15      0.01         0.01
  WS02006252WS02006251        0.69      0.69      1.63      1.39         0.01
  WS02006251WS02006249        0.03      0.12      0.03      0.83         0.03
  WS02006249WS02006248        0.01      0.01      0.03      3.95         0.01
  WS02006248WS02006247        0.04      0.04      0.20      0.01         0.01
  WS02006247WS02006245        0.21      0.23      0.21      4.73         0.20
  WS02006245WS02006243        0.23      0.23      0.30      0.05         0.01
  WS02006243WS02006242        0.32      0.32      0.82      0.01         0.01
  WS02006242WS02006240        0.40      0.40      1.20      1.44         0.01
  WS02006240WS02006239        0.42      0.42      0.49      0.01         0.01
  WS02006239WS02006238        1.20      1.20      1.39      0.01         0.01
  WS02006238WS02006235        1.28      1.28      1.80      0.01         0.01
  WS02006235WS02006234        0.60      0.60      1.07      5.79         0.04
  WS02006234WS02006232        0.68      0.68      2.02      0.01         0.01
  WS02006232WS02006231        0.55      0.55      2.02      0.01         0.01
  WS02006231WS02006230        0.55      0.55      0.61      5.85         0.02
  WS02006230WS02006229        3.12      4.58      3.12      6.30         3.11
  WS02006228WS02006109        2.05      2.64      2.05      5.83         2.05
  WS02006116WS02004401        0.42      0.42      0.43      0.36         0.35
  WS02006115WS02006116        0.29      0.29      0.30      0.21         0.20
  WS02006112WS02006115        0.26      0.26      0.97      0.01         0.01
  WS02006111WS02006112        0.01      0.01      5.17      0.01         0.01
  WS02006110WS02006113        0.01      0.01      2.35      0.01         0.01
  WS02006109WS02006110        0.93      0.93      2.64      0.93         0.01
  WS02004411WS02004412        0.01      0.01      0.01      0.40         0.01
  WS02004401WS02004402        0.43      0.43      0.47      0.01         0.02
  WS02004410WS02004411        0.01      0.01      0.01      0.34         0.01
  WS02004409WS02004410        0.01      0.01      0.01      0.22         0.01
  WS02004406WS02004407        0.01      0.01      0.56      0.01         0.01
  WS02004405WS02004406        0.56      0.59      0.56      0.95         0.56
  WS02004404WS02004405        0.59      0.62      0.59      6.24         0.59
  WS02004403WS02004404        0.47      0.47      0.62      0.01         0.01
  WS02004402WS02004403        0.47      0.47      0.47      0.41         0.40
  WS02003072WS02003073        0.01      0.01      0.01      5.46         0.01
  HS02004876HS02004881        0.01      0.01      0.01      0.49         0.01
  HS02004785HS02004788        0.01      0.01      0.01      0.35         0.01
  HS02004480HS02004478        0.01      0.01      0.01      0.79         0.01
  YS02001759YS02001757        6.09      6.09      6.12      0.01         0.01
  YS02001762YS02001759        6.09      6.09      6.09      0.01         0.01
  YS02001765YS02001762        6.08      6.08      6.09      0.01         0.01
  YS02001770YS02001767        6.07      6.07      6.07      0.92         0.72
  YS02001774YS02001770        6.07      6.07      6.08      0.01         0.01
  YS02001779YS02001774        6.04      6.04      6.08      0.01         0.01
  YS02001649YS02001757        6.08      6.08      6.12      0.01         0.01
  YS02001767YS02001765        6.07      6.07      6.08      0.01         0.01
  YS02006561YS02001783        1.59      1.59      2.12      0.01         0.01
  YS02001783YS02001784        2.11      2.12      2.20      2.03         1.94
  YS02001784YS02001785        2.05      2.20      2.05      2.80         2.05
  YS02001788YS02001790        2.01      2.01      2.83      0.01         0.01
  YS02001790YS02001791        2.83      2.83      2.98      1.53         1.44
  YS02001791YS02001793        2.98      2.98      3.21      0.01         0.01
  YS02001910YS02001907        1.95      1.95      2.27      0.01         0.01
  YS02001786YS02001788        2.01      2.05      2.01      2.41         2.01
  YS02001915YS02001910        1.75      1.75      1.95      0.01         0.01
  YS02001918YS02001915        1.51      1.51      1.75      0.01         0.01
  YS02001923YS02001920        1.34      1.34      1.55      0.01         0.01
  YS02001926YS02001923        0.01      0.01      0.01      0.01         0.01
  YS02001929YS02001926        0.01      0.01      0.01      0.01         0.01
  YS02001920YS02001918        1.51      1.51      1.55      0.01         0.01
  YS02001629YS02163301        6.06      6.06      6.07      0.01         0.01
  YS02001619YS02001622        6.02      6.02      6.02      0.01         0.01
  YS02001622YS02001625        6.02      6.02      6.05      0.01         0.01
  YS02001625YS02001629        6.02      6.02      6.05      0.01         0.01
  YS02163301YS02001633        6.07      6.07      6.08      0.01         0.01
  YS02163601YS02164001        6.08      6.08      6.09      0.01         0.01
  YS02164001YS02001641        6.08      6.08      6.08      0.01         0.02
  YS02001641YS02001644        6.08      6.08      6.08      2.21         2.26
  YS02001647YS02001649        6.05      6.05      6.08      0.01         0.01
  YS02006553YS02006556        2.11      2.11      2.31      0.01         0.01
  YS02006556YS02006558        2.18      2.18      2.36      0.01         0.01
  YSB6556YSB1171              0.01      0.01      0.14      0.01         0.01
  YS02001907YS02006553        2.76      2.76      2.94      0.01         0.01
  YS02006558YS02006561        1.79      2.09      1.79      2.63         1.79
  YS02001633YS02163601        6.08      6.08      6.09      0.01         0.01
  YS02001644YS02001647        6.05      6.05      6.08      0.01         0.01
  YS02001745YS02001748        0.01      0.01      5.99      0.01         0.01
  YS02001748YS02001751        6.00      6.00      6.02      0.01         0.01
  YS02001751YS02001754        6.02      6.02      6.05      0.01         0.01
  YS02001754YS02001757        6.05      6.05      6.12      0.01         0.01
  YS02001882YS02001884        1.76      1.76      1.80      0.01         0.01
  YS02001884YS02001887        1.85      1.85      1.87      0.01         0.01
  YS02001890YS02001895        1.74      1.74      1.96      0.01         0.01
  YS02001895YS02001898        1.72      1.72      1.74      0.01         0.01
  YS02001898YS02001901        1.74      1.74      1.84      0.01         0.01
  YS02001901YS02001904        1.82      1.82      1.84      0.01         0.01
  YS02001904YS02001907        1.82      1.82      2.33      0.01         0.01
  YS02001887YS02001890        1.90      1.90      1.93      0.20         0.01
  YS02001652YS02001649        6.06      6.06      6.08      0.01         0.01
  YS02001655YS02001652        6.02      6.02      6.05      0.01         0.01
  YS02001658YS02001655        5.99      5.99      6.02      0.01         0.01
  YS02001661YS02001658        0.20      0.20      5.99      0.01         0.01
  YS02001664YS02001661        0.01      0.01      1.82      0.01         0.01
  YS02001793JiankangQianchi        3.19      3.19      3.70      0.01         0.01
  YS02001757CaochengTiaoxuchi        5.60      5.60      6.12      0.01         0.01
  3                           0.01      0.01      0.01      0.01         0.01
  
  
  ***************
  Pumping Summary
  ***************
  
  ---------------------------------------------------------------------------------------------------------
                                                  Min       Avg       Max     Total     Power    % Time Off
                        Percent   Number of      Flow      Flow      Flow    Volume     Usage    Pump Curve
  Pump                 Utilized   Start-Ups       LPS       LPS       LPS  10^6 ltr     Kw-hr    Low   High
  ---------------------------------------------------------------------------------------------------------
  CC-Pump-1               53.74           7      0.00    129.74    200.00     1.922      2.12    0.0    7.7
  CC-Pump-2               57.43           6      0.00    140.68    200.00     2.220      2.66    0.0    6.2
  JK-Pump-1               55.32           7      0.00    144.77    300.00     1.853     27.07    0.0    0.0
  JK-Pump-2               74.47           6      0.00    212.42    300.00     3.775     40.68    0.0    0.0
  XR-Pump-1               82.95           6      0.00     69.31     95.00     1.681     11.15    0.0    0.0
  XR-Pump-2               85.08           6      0.00     68.24     95.00     1.738     12.45    0.0    0.0
  XR-Pump-3               82.94           8      0.00     56.23     95.00     1.482     10.97    0.0    0.0
  XR-Pump-4               68.06           8      0.00     68.19     95.00     1.254      8.01    0.0    0.0
  

  Analysis begun on:  Wed Dec 22 11:12:54 2021
  Analysis ended on:  Wed Dec 22 11:12:58 2021
  Total elapsed time: 00:00:04