
  EPA STORM WATER MANAGEMENT MODEL - VERSION 5.1 (Build 5.3.0.dev0)
  --------------------------------------------------------------

  WARNING 04: minimum elevation drop used for Conduit WS02004404WS02004405
  WARNING 03: negative offset ignored for Link YS02001904YS02001907
  
  *********************************************************
  NOTE: The summary statistics displayed in this report are
  based on results found at every computational time step,  
  not just on results from each reporting time step.
  *********************************************************
  
  ****************
  Analysis Options
  ****************
  Flow Units ............... LPS
  Process Models:
    Rainfall/Runoff ........ YES
    RDII ................... NO
    Snowmelt ............... NO
    Groundwater ............ NO
    Flow Routing ........... YES
    Ponding Allowed ........ NO
    Water Quality .......... NO
  Infiltration Method ...... HORTON
  Flow Routing Method ...... DYNWAVE
  Surcharge Method ......... EXTRAN
  Starting Date ............ 08/28/2015 08:00:00
  Ending Date .............. 08/28/2015 15:50:00
  Antecedent Dry Days ...... 8.0
  Report Time Step ......... 00:01:00
  Wet Time Step ............ 00:01:00
  Dry Time Step ............ 00:01:00
  Routing Time Step ........ 5.00 sec
  Variable Time Step ....... YES
  Maximum Trials ........... 8
  Number of Threads ........ 4
  Head Tolerance ........... 0.001500 m
  
  
  **************************        Volume         Depth
  Runoff Quantity Continuity     hectare-m            mm
  **************************     ---------       -------
  Total Precipitation ......         7.641        16.729
  Evaporation Loss .........         0.000         0.000
  Infiltration Loss ........         1.880         4.117
  Surface Runoff ...........         4.668        10.221
  Final Storage ............         1.093         2.393
  Continuity Error (%) .....        -0.013
  
  
  **************************        Volume        Volume
  Flow Routing Continuity        hectare-m      10^6 ltr
  **************************     ---------     ---------
  Dry Weather Inflow .......         0.616         6.165
  Wet Weather Inflow .......         4.667        46.675
  Groundwater Inflow .......         0.000         0.000
  RDII Inflow ..............         0.000         0.000
  External Inflow ..........         0.102         1.024
  External Outflow .........         1.859        18.586
  Flooding Loss ............         2.997        29.975
  Evaporation Loss .........         0.000         0.000
  Exfiltration Loss ........         0.000         0.000
  Initial Stored Volume ....         0.076         0.761
  Final Stored Volume ......         0.646         6.459
  Continuity Error (%) .....        -0.725
  
  
  *************************
  Highest Continuity Errors
  *************************
  Node HS02004842 (12.71%)
  Node YS02001884 (9.35%)
  Node JK-storage (-3.13%)
  Node HS02004817 (2.32%)
  Node YSB1171 (2.18%)
  
  
  ***************************
  Time-Step Critical Elements
  ***************************
  Link 3 (44.57%)
  Link WS02006252WS02006251 (39.82%)
  Link WS02006280WS02006229 (6.94%)
  Link WS02006238WS02006235 (2.61%)
  
  
  ********************************
  Highest Flow Instability Indexes
  ********************************
  Link WS02006113WS02006111 (45)
  Link YS02163301YS02001633 (37)
  Link YS02001629YS02163301 (36)
  Link YS02163601YS02164001 (36)
  Link YS02001619YS02001622 (35)
  
  
  *************************
  Routing Time Step Summary
  *************************
  Minimum Time Step           :     0.50 sec
  Average Time Step           :     0.92 sec
  Maximum Time Step           :     5.00 sec
  Percent in Steady State     :    -0.00
  Average Iterations per Step :     4.10
  Percent Not Converging      :    15.49
  
  
  ***************************
  Subcatchment Runoff Summary
  ***************************
  
  ------------------------------------------------------------------------------------------------------------------------------
                            Total      Total      Total      Total     Imperv       Perv      Total       Total     Peak  Runoff
                           Precip      Runon       Evap      Infil     Runoff     Runoff     Runoff      Runoff   Runoff   Coeff
  Subcatchment                 mm         mm         mm         mm         mm         mm         mm    10^6 ltr      LPS
  ------------------------------------------------------------------------------------------------------------------------------
  sub0                      16.73       0.00       0.00       0.97      14.29       0.20      14.50        0.01     3.66   0.867
  sub1                      16.73       0.00       0.00       1.58      13.63       0.26      13.89        0.09    24.51   0.830
  sub2                      16.73       0.00       0.00       5.80       9.63       0.39      10.02        0.09    22.91   0.599
  sub3                      16.73       0.00       0.00       5.88       9.59       0.31       9.90        0.22    50.49   0.592
  sub4                      16.73       0.00       0.00       1.65      13.47       0.19      13.66        0.28    60.01   0.817
  sub5                      16.73       0.00       0.00       0.99      14.24       0.18      14.42        0.16    43.61   0.862
  sub7                      16.73       0.00       0.00       1.26      13.97       0.24      14.21        0.05    13.82   0.849
  sub8                      16.73       0.00       0.00       1.27      13.96       0.23      14.19        0.09    25.44   0.848
  sub9                      16.73       0.00       0.00       1.27      13.96       0.23      14.19        0.07    19.02   0.848
  sub10                     16.73       0.00       0.00       1.13      14.10       0.21      14.30        0.16    42.73   0.855
  sub11                     16.73       0.00       0.00       1.12      14.11       0.21      14.33        0.17    47.25   0.857
  sub12                     16.73       0.00       0.00       1.83      13.37       0.35      13.71        0.12    35.87   0.820
  sub14                     16.73       0.00       0.00       1.27      13.95       0.23      14.19        0.14    37.43   0.848
  sub15                     16.73       0.00       0.00       4.53      10.73       0.49      11.22        0.19    51.47   0.671
  sub16                     16.73       0.00       0.00       4.88      10.29       0.64      10.93        0.11    32.57   0.653
  sub17                     16.73       0.00       0.00       4.74      10.44       0.61      11.05        0.09    26.81   0.661
  sub22                     16.73       0.00       0.00       6.60       8.75       0.59       9.34        0.59   160.16   0.558
  sub23                     16.73       0.00       0.00       5.59       9.67       0.60      10.27        0.49   134.74   0.614
  sub60                     16.73       0.00       0.00       1.94      11.65       0.06      11.71        3.55   386.89   0.700
  sub61                     16.73       0.00       0.00       2.75      11.65       0.09      11.73        3.62   476.87   0.701
  sub62                     16.73       0.00       0.00       1.26      12.72       0.07      12.79        3.93   491.27   0.765
  sub63                     16.73       0.00       0.00       4.75      10.14       0.10      10.23        3.10   437.54   0.612
  sub64                     16.73       0.00       0.00       2.45      11.19       0.06      11.26        3.42   367.58   0.673
  sub65                     16.73       0.00       0.00       2.11      11.40       0.06      11.46        3.52   372.98   0.685
  sub66                     16.73       0.00       0.00       4.79       9.55       0.06       9.61        2.95   336.52   0.575
  sub67                     16.73       0.00       0.00       1.24      13.25       0.09      13.35        4.12   605.48   0.798
  sub68                     16.73       0.00       0.00       2.25      12.20       0.10      12.30        3.78   521.64   0.735
  sub69                     16.73       0.00       0.00       2.37      12.50       0.14      12.64        2.95   482.20   0.755
  sub70                     16.73      12.90       0.00       8.98      17.16       1.09      18.25        4.18   460.88   0.616
  sub71                     16.73       0.00       0.00       1.27      12.46       0.07      12.53        2.96   345.19   0.749
  sub72                     16.73       0.00       0.00       1.14      10.39       0.03      10.43        2.12   185.81   0.623
  sub73                     16.73      17.77       0.00       9.78      19.72       1.38      21.10        4.96   482.28   0.612
  sub74                     16.73       0.00       0.00      12.48       3.71       0.07       3.78        1.51   261.10   0.226
  
  
  ******************
  Node Depth Summary
  ******************
  
  ---------------------------------------------------------------------------------
                                 Average  Maximum  Maximum  Time of Max    Reported
                                   Depth    Depth      HGL   Occurrence   Max Depth
  Node                 Type       Meters   Meters   Meters  days hr:min      Meters
  ---------------------------------------------------------------------------------
  WS02001211           JUNCTION     0.66     0.76     5.60     0  02:06        0.76
  WS02001212           JUNCTION     0.39     0.50     5.56     0  02:05        0.50
  WS02001213           JUNCTION     0.62     0.77     5.54     0  02:04        0.77
  WS02003069           JUNCTION     0.44     0.64     5.23     0  02:04        0.64
  WS02003072           JUNCTION     0.50     0.70     5.07     0  02:05        0.70
  WS02003073           JUNCTION     0.30     0.43     4.50     0  02:05        0.43
  WS02003060           JUNCTION     0.39     0.57     5.50     0  02:04        0.57
  WS02003066           JUNCTION     0.23     0.36     5.91     0  02:02        0.36
  WS02003059           JUNCTION     0.68     0.84     5.52     0  02:04        0.84
  WS02003067           JUNCTION     0.56     0.79     6.11     0  02:00        0.79
  WS02004401           JUNCTION     0.68     1.11     7.11     0  01:56        1.11
  WS02004402           JUNCTION     0.70     1.11     7.07     0  01:56        1.11
  WS02004403           JUNCTION     0.72     1.10     7.03     0  01:57        1.10
  WS02004404           JUNCTION     0.80     1.17     7.02     0  01:46        1.16
  WS02004406           JUNCTION     0.80     1.11     6.94     0  01:56        1.11
  WS02004409           JUNCTION     0.49     0.86     6.63     0  01:58        0.86
  WS02004410           JUNCTION     0.51     0.86     6.58     0  01:58        0.86
  WS02004411           JUNCTION     0.52     0.85     6.53     0  01:59        0.85
  WS02004412           JUNCTION     0.53     0.84     6.48     0  01:59        0.84
  WS02004413           JUNCTION     0.69     0.98     6.45     0  01:59        0.98
  WS02004405           JUNCTION     0.79     1.14     6.99     0  01:57        1.14
  WS02006109           JUNCTION     0.77     1.27     7.89     0  01:57        1.26
  WS02006110           JUNCTION     0.75     1.11     7.70     0  01:57        1.11
  WS02006111           JUNCTION     0.24     0.61     7.32     0  01:57        0.61
  WS02006112           JUNCTION     0.85     1.39     7.28     0  01:57        1.38
  WS02006113           JUNCTION     0.34     0.62     7.51     0  01:57        0.62
  WS02006115           JUNCTION     0.57     1.07     7.21     0  01:56        1.07
  WS02006116           JUNCTION     0.65     1.12     7.16     0  01:56        1.12
  WS02006230           JUNCTION     0.73     1.39     8.13     0  01:59        1.38
  WS02006231           JUNCTION     0.48     1.03     8.15     0  01:59        1.02
  WS02006232           JUNCTION     0.61     1.12     8.16     0  01:59        1.11
  WS02006234           JUNCTION     0.52     1.01     8.17     0  01:45        1.00
  WS02006235           JUNCTION     0.55     1.02     8.19     0  01:59        1.00
  WS02006238           JUNCTION     0.57     1.04     8.18     0  01:59        1.02
  WS02006240           JUNCTION     0.47     0.92     8.21     0  01:52        0.90
  WS02006242           JUNCTION     0.52     1.40     8.67     0  01:45        1.29
  WS02006243           JUNCTION     0.39     0.80     8.22     0  01:53        0.79
  WS02006245           JUNCTION     0.38     0.74     8.23     0  01:53        0.74
  WS02006247           JUNCTION     0.40     0.74     8.24     0  01:52        0.73
  WS02006248           JUNCTION     0.34     0.65     8.23     0  02:00        0.65
  WS02006249           JUNCTION     0.38     0.64     8.24     0  02:00        0.64
  WS02006239           JUNCTION     0.53     0.98     8.19     0  01:52        0.97
  WS02006251           JUNCTION     0.36     0.63     8.30     0  01:58        0.63
  WS02006252           JUNCTION     0.30     0.59     8.83     0  07:19        0.58
  WS02006253           JUNCTION     0.39     0.66     8.30     0  01:57        0.66
  WS02006256           JUNCTION     0.99     1.24     8.18     0  02:00        1.24
  WS02004138           JUNCTION     0.15     0.19     7.44     0  03:50        0.19
  WS02004407           JUNCTION     0.22     0.37     6.68     0  01:57        0.37
  WS02006228           JUNCTION     0.77     1.39     8.04     0  01:56        1.38
  WS02006229           JUNCTION     0.75     1.42     8.12     0  01:56        1.42
  WS02006280           JUNCTION     0.07     0.25     8.52     0  01:55        0.25
  WS02006284           JUNCTION     0.38     0.64     9.04     0  01:55        0.64
  WS02006287           JUNCTION     0.11     0.38     9.33     0  01:54        0.38
  WSF200               JUNCTION     0.22     0.40     5.63     0  02:03        0.40
  HS02004901           JUNCTION     0.14     0.36    10.18     0  01:52        0.36
  HS02004881           JUNCTION     0.01     0.05     9.08     0  01:55        0.05
  HS02004876           JUNCTION     0.05     0.16     9.19     0  01:55        0.16
  HS02004870           JUNCTION     0.02     0.09     9.38     0  01:55        0.09
  HS02004862           JUNCTION     0.02     0.11     9.49     0  01:55        0.11
  HS02004856           JUNCTION     0.08     0.15     9.58     0  01:55        0.15
  HS02004852           JUNCTION     0.01     0.07     9.59     0  01:55        0.07
  HS02004848           JUNCTION     0.01     0.07     9.67     0  01:55        0.07
  HS02004842           JUNCTION     0.34     0.40     9.67     0  01:55        0.40
  HS02004837           JUNCTION     0.03     0.09     9.67     0  01:55        0.09
  HS02004830           JUNCTION     0.04     0.10     9.57     0  01:56        0.10
  HS02004824           JUNCTION     0.03     0.12     9.53     0  01:55        0.12
  HS02004817           JUNCTION     0.46     0.69     9.53     0  01:55        0.69
  HS02004807           JUNCTION     0.14     0.36     9.53     0  01:55        0.36
  HS02004802           JUNCTION     0.17     0.39     9.52     0  01:55        0.39
  HS02004799           JUNCTION     0.13     0.45     9.66     0  01:53        0.45
  HS02004792           JUNCTION     0.04     0.20     9.73     0  01:52        0.20
  HS02004788           JUNCTION     0.03     0.15    10.05     0  01:53        0.15
  HS02004785           JUNCTION     0.05     0.23    10.14     0  01:52        0.23
  HS02004777           JUNCTION     0.16     0.37    10.17     0  01:52        0.37
  HS02004770           JUNCTION     0.13     0.35    10.18     0  01:52        0.35
  HS02004480           JUNCTION     0.09     0.37     9.61     0  01:53        0.37
  HS02004479           JUNCTION     0.13     0.41     9.61     0  01:53        0.41
  HS02004478           JUNCTION     0.07     0.27     9.50     0  01:54        0.27
  YS02001745           JUNCTION     0.76     0.95     8.47     0  02:50        0.95
  YS02001748           JUNCTION     1.16     1.46     8.54     0  01:50        1.39
  YS02001751           JUNCTION     1.35     1.75     8.62     0  01:48        1.58
  YS02001754           JUNCTION     1.60     1.84     8.45     0  02:49        1.84
  YS02001762           JUNCTION     1.80     2.04     8.44     0  02:47        2.04
  YS02001765           JUNCTION     1.75     1.99     8.44     0  02:47        1.99
  YS02001767           JUNCTION     1.72     1.94     8.43     0  02:47        1.94
  YS02001770           JUNCTION     1.71     1.93     8.42     0  02:47        1.93
  YS02001774           JUNCTION     1.78     1.98     8.41     0  02:35        1.98
  YS02001779           JUNCTION     1.53     1.68     8.37     0  01:47        1.68
  YS02001882           JUNCTION     0.59     1.81     8.53     0  01:54        1.63
  YS02001884           JUNCTION     0.69     1.88     8.50     0  01:54        1.73
  YS02001759           JUNCTION     1.83     2.08     8.45     0  02:47        2.08
  YS02001887           JUNCTION     0.77     1.89     8.43     0  01:54        1.80
  YS02001890           JUNCTION     0.80     1.81     8.32     0  01:54        1.81
  YS02001898           JUNCTION     0.56     1.58     8.32     0  01:54        1.56
  YS02001901           JUNCTION     0.68     1.70     8.31     0  01:54        1.67
  YS02001904           JUNCTION     0.66     1.66     8.29     0  01:54        1.63
  YS02001907           JUNCTION     0.99     1.96     8.25     0  01:56        1.96
  YS02001910           JUNCTION     0.78     2.00     8.50     0  01:57        1.79
  YS02001915           JUNCTION     0.58     1.93     8.65     0  01:57        1.65
  YS02001918           JUNCTION     0.33     1.81     8.88     0  01:57        1.37
  YS02001619           JUNCTION     1.31     1.61     8.54     0  01:47        1.48
  YS02001629           JUNCTION     1.66     1.85     8.40     0  01:47        1.85
  YS02001641           JUNCTION     1.76     1.94     8.37     0  02:15        1.93
  YS02001644           JUNCTION     1.77     1.92     8.35     0  01:51        1.92
  YS02001652           JUNCTION     1.61     2.16     8.76     0  02:09        1.92
  YS02001655           JUNCTION     1.38     2.12     8.97     0  02:09        1.73
  YS02001920           JUNCTION     0.43     2.12     9.13     0  01:57        1.47
  YS02001923           JUNCTION     0.26     2.03     9.29     0  01:57        1.25
  YS02001926           JUNCTION     0.31     1.90     9.35     0  01:57        1.08
  YS02001929           JUNCTION     0.19     0.93     8.62     0  01:57        0.85
  YS02001658           JUNCTION     1.11     2.09     9.23     0  02:11        1.48
  YS02001661           JUNCTION     0.87     2.20     9.60     0  02:09        1.22
  YS02001664           JUNCTION     0.39     0.57     8.49     0  01:55        0.56
  YS02001622           JUNCTION     1.33     1.62     8.52     0  01:48        1.50
  YS02001633           JUNCTION     1.76     1.95     8.40     0  02:08        1.94
  YS02001649           JUNCTION     1.81     2.05     8.44     0  01:54        2.05
  YS02001757           JUNCTION     1.93     2.18     8.45     0  02:47        2.18
  YS02001895           JUNCTION     0.56     1.58     8.33     0  01:54        1.56
  YS02001625           JUNCTION     1.62     1.78     8.38     0  01:46        1.78
  YS02163301           JUNCTION     1.69     1.90     8.41     0  01:47        1.88
  YS02163601           JUNCTION     1.81     1.99     8.39     0  02:25        1.98
  YS02164001           JUNCTION     1.74     1.92     8.38     0  02:21        1.91
  YS02001647           JUNCTION     1.59     1.81     8.42     0  02:11        1.79
  YSB1154              JUNCTION     0.27     0.56     9.62     0  01:53        0.56
  YSB6556              JUNCTION     0.16     0.44     9.61     0  01:53        0.44
  YSB1174              JUNCTION     0.22     0.50     9.61     0  01:53        0.50
  YSB1171              JUNCTION     0.43     0.71     9.61     0  01:53        0.71
  YS02006553           JUNCTION     0.99     2.01     8.29     0  01:54        1.96
  YS02006561           JUNCTION     0.35     1.95     8.61     0  01:54        1.08
  YS02006556           JUNCTION     0.96     2.14     8.45     0  01:54        1.93
  YS02006558           JUNCTION     1.00     2.24     8.51     0  01:54        1.97
  YS02001783           JUNCTION     0.59     2.19     8.33     0  01:54        1.48
  YS02001784           JUNCTION     0.60     2.09     8.16     0  01:54        1.42
  YS02001786           JUNCTION     0.55     2.23     8.26     0  01:54        1.27
  YS02001788           JUNCTION     0.48     2.28     8.26     0  01:54        1.13
  YS02001790           JUNCTION     0.61     1.96     7.60     0  01:53        1.29
  YS02001791           JUNCTION     0.60     2.46     7.93     0  01:53        1.27
  YS02001793           JUNCTION     0.83     2.79     7.62     0  01:52        1.80
  WS02004139           JUNCTION     0.60     0.70     5.61     0  02:06        0.70
  WSC                  OUTFALL      0.30     0.43     1.10     0  02:06        0.43
  3                    OUTFALL      0.09     0.24     6.24     0  02:00        0.24
  4                    OUTFALL      0.02     0.14     7.14     0  02:00        0.14
  5                    OUTFALL      0.00     0.00     5.00     0  00:00        0.00
  JK-storage           STORAGE      3.13     5.80     6.60     0  01:54        5.80
  CC-storage           STORAGE      1.15     1.45     8.45     0  02:47        1.45
  XR-storage           STORAGE      7.09     7.72     5.72     0  02:06        7.72
  
  
  *******************
  Node Inflow Summary
  *******************
  
  -------------------------------------------------------------------------------------------------
                                  Maximum  Maximum                  Lateral       Total        Flow
                                  Lateral    Total  Time of Max      Inflow      Inflow     Balance
                                   Inflow   Inflow   Occurrence      Volume      Volume       Error
  Node                 Type           LPS      LPS  days hr:min    10^6 ltr    10^6 ltr     Percent
  -------------------------------------------------------------------------------------------------
  WS02001211           JUNCTION      7.35   375.68     0  04:30       0.207        7.22       0.408
  WS02001212           JUNCTION      0.00   367.86     0  04:31           0        7.19       0.240
  WS02001213           JUNCTION      0.00   365.49     0  04:31           0        7.17       0.287
  WS02003069           JUNCTION      0.32  1112.06     0  02:04     0.00902        15.3       0.173
  WS02003072           JUNCTION      0.00  1111.99     0  02:04           0        15.3       0.219
  WS02003073           JUNCTION      1.82  1113.93     0  02:05      0.0514        15.3       0.246
  WS02003060           JUNCTION     16.53  1111.62     0  02:03       0.466        15.3       0.163
  WS02003066           JUNCTION      0.00   811.82     0  01:59           0        7.77       0.054
  WS02003059           JUNCTION      0.00   364.14     0  04:32           0        7.15       0.464
  WS02003067           JUNCTION      0.00   811.84     0  01:59           0        7.78       0.113
  WS02004401           JUNCTION      0.00   812.19     0  01:57           0        7.99       0.235
  WS02004402           JUNCTION      0.00   812.19     0  01:57           0        7.97       0.225
  WS02004403           JUNCTION      0.00   812.20     0  01:57           0        7.95       0.208
  WS02004404           JUNCTION      0.16   812.36     0  01:57     0.00457        7.94       0.162
  WS02004406           JUNCTION      0.00   812.40     0  01:57           0        7.91       0.387
  WS02004409           JUNCTION      0.00   812.38     0  01:57           0        7.87       0.179
  WS02004410           JUNCTION      0.00   812.02     0  01:58           0        7.86       0.209
  WS02004411           JUNCTION      0.00   811.88     0  01:58           0        7.84       0.218
  WS02004412           JUNCTION      0.00   811.83     0  01:59           0        7.83       0.240
  WS02004413           JUNCTION      0.00   811.83     0  01:59           0        7.81       0.366
  WS02004405           JUNCTION      0.04   812.40     0  01:57     0.00107        7.93       0.236
  WS02006109           JUNCTION      1.23   787.96     0  01:56      0.0347           8       0.214
  WS02006110           JUNCTION      0.00   787.92     0  01:56           0        7.98       0.215
  WS02006111           JUNCTION      0.00   787.76     0  01:57           0        7.96       0.039
  WS02006112           JUNCTION     26.81   812.28     0  01:57      0.0948        8.05       0.298
  WS02006113           JUNCTION      0.00   787.89     0  01:56           0        7.96       0.084
  WS02006115           JUNCTION      0.00   812.28     0  01:57           0        8.02       0.234
  WS02006116           JUNCTION      0.00   812.19     0  01:57           0           8       0.183
  WS02006230           JUNCTION     10.28   393.45     0  05:42        0.29        5.29       0.122
  WS02006231           JUNCTION      0.00   385.06     0  05:42           0        5.01       0.201
  WS02006232           JUNCTION      0.00   385.27     0  05:42           0        5.02       0.238
  WS02006234           JUNCTION      0.00   385.76     0  05:41           0        5.03       0.100
  WS02006235           JUNCTION      0.00   386.32     0  05:41           0        5.13       0.124
  WS02006238           JUNCTION      0.00   330.59     0  07:20           0        3.49       0.114
  WS02006240           JUNCTION      0.00   333.39     0  07:20           0        3.46       0.132
  WS02006242           JUNCTION      0.00   336.14     0  06:11           0        3.45       0.155
  WS02006243           JUNCTION      0.00   339.92     0  06:11           0        3.43      -0.333
  WS02006245           JUNCTION      0.00   342.08     0  06:10           0        3.44       0.138
  WS02006247           JUNCTION      0.00   344.64     0  06:10           0        3.44       0.014
  WS02006248           JUNCTION      0.00   347.20     0  06:10           0        3.44      -0.073
  WS02006249           JUNCTION      0.00   393.11     0  06:10           0        3.73       0.110
  WS02006239           JUNCTION      0.00   332.78     0  07:20           0        3.48       0.140
  WS02006251           JUNCTION      0.08   400.33     0  06:10     0.00217        3.76      -0.005
  WS02006252           JUNCTION      0.00   399.96     0  05:40           0        3.19       0.004
  WS02006253           JUNCTION      3.66   142.87     0  01:54      0.0117       0.561       0.042
  WS02006256           JUNCTION      0.00   605.67     0  02:00           0        4.68       0.054
  WS02004138           JUNCTION      0.00   379.95     0  04:30           0        7.04       0.067
  WS02004407           JUNCTION      0.00   812.40     0  01:57           0        7.88       0.077
  WS02006228           JUNCTION      0.00   786.73     0  01:56           0        7.97       0.152
  WS02006229           JUNCTION      0.00   786.80     0  01:56           0        7.98       0.115
  WS02006280           JUNCTION      0.00   656.05     0  01:55           0         2.7       0.003
  WS02006284           JUNCTION      0.10   655.97     0  01:55      0.0027         2.7       0.038
  WS02006287           JUNCTION      0.00   655.82     0  01:54           0         2.7       0.027
  WSF200               JUNCTION      0.00   811.74     0  01:59           0        7.77       0.048
  HS02004901           JUNCTION     32.57    32.57     0  01:50       0.114       0.115       1.561
  HS02004881           JUNCTION     13.82   139.59     0  01:54      0.0479       0.529       0.017
  HS02004876           JUNCTION     24.51   126.37     0  01:54      0.0924       0.482       0.114
  HS02004870           JUNCTION     25.44   102.13     0  01:54      0.0907        0.39       0.029
  HS02004862           JUNCTION     23.11    77.53     0  01:55       0.099       0.299       0.058
  HS02004856           JUNCTION     19.02    54.51     0  01:55      0.0682       0.202       0.721
  HS02004852           JUNCTION      0.00    36.10     0  01:55           0       0.134       0.042
  HS02004848           JUNCTION     50.49    50.49     0  01:57       0.223       0.223       0.023
  HS02004842           JUNCTION      0.00    15.55     0  02:06           0       0.102      14.560
  HS02004837           JUNCTION     49.08    62.50     0  01:55       0.337       0.426       0.192
  HS02004830           JUNCTION      0.15    62.61     0  01:55     0.00423       0.416       0.297
  HS02004824           JUNCTION     60.06   122.20     0  01:58       0.286       0.702       0.078
  HS02004817           JUNCTION      0.60   124.03     0  01:59      0.0169       0.718       2.377
  HS02004807           JUNCTION     47.25   168.28     0  01:57       0.166       0.868       0.500
  HS02004802           JUNCTION      0.00   169.24     0  01:58           0       0.865       0.459
  HS02004799           JUNCTION     37.43   414.53     0  01:52       0.135        1.57       0.167
  HS02004792           JUNCTION    160.44   377.30     0  01:52       0.598        1.44       0.029
  HS02004788           JUNCTION     53.14   218.54     0  01:52        0.24       0.839       0.047
  HS02004785           JUNCTION      0.15   165.59     0  01:52     0.00423       0.601       0.083
  HS02004777           JUNCTION      0.03   165.80     0  01:51    0.000846       0.601       0.871
  HS02004770           JUNCTION    134.74   166.64     0  01:51        0.49       0.603       0.518
  HS02004480           JUNCTION      0.00   492.21     0  01:53           0        1.85       0.064
  HS02004479           JUNCTION      0.00    78.00     0  01:54           0       0.292       0.251
  HS02004478           JUNCTION      0.00   655.76     0  01:54           0         2.7       0.013
  YS02001745           JUNCTION    386.89   386.89     0  02:16        3.55        3.55       0.327
  YS02001748           JUNCTION      0.04   395.84     0  02:16     0.00127        3.54       0.652
  YS02001751           JUNCTION      0.01   396.03     0  02:16     0.00031        3.52       0.678
  YS02001754           JUNCTION      0.26   396.03     0  02:16     0.00733         3.5       0.702
  YS02001762           JUNCTION      0.00   436.90     0  02:04           0        2.51       0.836
  YS02001765           JUNCTION      0.00   436.92     0  02:04           0        2.51       0.970
  YS02001767           JUNCTION      0.54   437.01     0  02:04      0.0151        2.53       1.419
  YS02001770           JUNCTION    491.42   718.01     0  02:52        3.94        4.97       0.633
  YS02001774           JUNCTION      0.00   718.16     0  02:52           0        3.45       0.723
  YS02001779           JUNCTION      0.01   718.23     0  02:52    0.000141        3.42       0.448
  YS02001882           JUNCTION      0.00    19.47     0  01:52           0      0.0232       8.661
  YS02001884           JUNCTION      0.00    45.30     0  01:52           0      0.0586      10.311
  YS02001759           JUNCTION    476.91   872.33     0  02:04        3.62        5.07       0.449
  YS02001887           JUNCTION    605.93   606.19     0  02:15        4.13        4.16       0.190
  YS02001890           JUNCTION      0.00   606.37     0  02:15           0        4.12       0.211
  YS02001898           JUNCTION      0.00   517.83     0  02:12           0           4       0.046
  YS02001901           JUNCTION      0.00   517.88     0  02:12           0           4       0.166
  YS02001904           JUNCTION      0.00   517.77     0  02:12           0           4       0.135
  YS02001907           JUNCTION      0.00  1143.54     0  01:58           0        9.14       0.251
  YS02001910           JUNCTION      0.00   630.14     0  01:58           0        5.16       0.214
  YS02001915           JUNCTION    345.21   630.00     0  01:58        2.96        5.21       0.108
  YS02001918           JUNCTION      0.00   359.35     0  01:58           0        2.28       0.054
  YS02001619           JUNCTION    336.52   336.52     0  02:16        2.95        2.95       0.415
  YS02001629           JUNCTION      0.00   230.58     0  01:47           0        1.44       2.016
  YS02001641           JUNCTION      0.00   418.12     0  01:51           0        4.86       0.429
  YS02001644           JUNCTION    367.62  1538.74     0  02:52        3.42        12.9       0.201
  YS02001652           JUNCTION      0.00   476.86     0  02:15           0        3.05       0.754
  YS02001655           JUNCTION      0.15   477.13     0  02:11     0.00434        3.07       0.818
  YS02001920           JUNCTION      2.87   359.31     0  01:58      0.0809        2.27       0.114
  YS02001923           JUNCTION      0.04   297.09     0  01:57     0.00106        2.17       0.039
  YS02001926           JUNCTION      0.05   347.13     0  01:56     0.00147        2.14       0.146
  YS02001929           JUNCTION    185.81   223.54     0  01:56        2.12        2.13       0.034
  YS02001658           JUNCTION      0.00   495.14     0  02:09           0        3.09       0.748
  YS02001661           JUNCTION      0.00   774.74     0  02:05           0         3.7       0.051
  YS02001664           JUNCTION    437.54   437.54     0  02:16         3.1         3.7       0.177
  YS02001622           JUNCTION      0.00   336.79     0  02:16           0        2.94       1.088
  YS02001633           JUNCTION    373.18   418.07     0  01:51        3.53        4.92       0.651
  YS02001649           JUNCTION      0.00   979.65     0  02:00           0        7.04       0.522
  YS02001757           JUNCTION      0.00  2139.16     0  02:03           0        9.96       0.925
  YS02001895           JUNCTION      0.00   517.72     0  02:12           0        4.01       0.120
  YS02001625           JUNCTION      0.00   336.66     0  02:16           0        2.91       1.352
  YS02163301           JUNCTION      0.00   227.32     0  01:48           0        1.44       1.675
  YS02163601           JUNCTION      0.11   417.90     0  01:51      0.0031        4.87       0.617
  YS02164001           JUNCTION      0.00   417.78     0  01:51           0        4.85       0.410
  YS02001647           JUNCTION      0.00   815.65     0  02:51           0        6.07       0.467
  YSB1154              JUNCTION     43.61    43.61     0  01:53       0.163       0.164       0.889
  YSB6556              JUNCTION      0.00    43.64     0  01:53           0       0.165       0.763
  YSB1174              JUNCTION     35.87    35.87     0  01:50        0.12        0.12       1.079
  YSB1171              JUNCTION      0.00    78.02     0  01:53           0       0.291       2.226
  YS02006553           JUNCTION      0.00   683.06     0  03:22           0        7.13       0.210
  YS02006561           JUNCTION      0.00   979.78     0  01:54           0        10.9       0.005
  YS02006556           JUNCTION      0.00   683.37     0  03:22           0        7.13       0.142
  YS02006558           JUNCTION    522.52   980.31     0  01:54        3.81        10.9       0.044
  YS02001783           JUNCTION      0.00   968.39     0  02:14           0        10.9       0.022
  YS02001784           JUNCTION      1.06   969.49     0  02:15      0.0299        10.9       0.034
  YS02001786           JUNCTION      0.06   969.53     0  02:15     0.00159        10.9       0.031
  YS02001788           JUNCTION      0.07   969.86     0  02:20       0.002        10.9       0.017
  YS02001790           JUNCTION      0.15   969.76     0  02:15     0.00437        10.9       0.023
  YS02001791           JUNCTION      0.00   969.79     0  02:15           0        10.9       0.009
  YS02001793           JUNCTION      0.00   969.96     0  02:15           0        10.9       0.001
  WS02004139           JUNCTION      0.32   379.00     0  03:50     0.00905        7.04       0.470
  WSC                  OUTFALL       0.00  1114.17     0  02:06           0        15.3       0.000
  3                    OUTFALL       0.00   605.81     0  02:00           0        3.01       0.000
  4                    OUTFALL       0.00   188.30     0  02:00           0       0.295       0.000
  5                    OUTFALL       0.00     0.00     0  00:00           0           0       0.000 ltr
  JK-storage           STORAGE       0.00   985.35     0  01:52           0        11.1      -3.038
  CC-storage           STORAGE       0.00  2139.15     0  02:03           0         7.2       0.875
  XR-storage           STORAGE     844.69   844.69     0  03:01        12.1        12.7      -0.002
  
  
  **********************
  Node Surcharge Summary
  **********************
  
  Surcharging occurs when water rises above the top of the highest conduit.
  ---------------------------------------------------------------------
                                               Max. Height   Min. Depth
                                   Hours       Above Crown    Below Rim
  Node                 Type      Surcharged         Meters       Meters
  ---------------------------------------------------------------------
  WS02004401           JUNCTION        0.51          0.113        1.547
  WS02004402           JUNCTION        0.55          0.115        1.625
  WS02004403           JUNCTION        0.56          0.104        1.926
  WS02004404           JUNCTION        0.66          0.167        2.613
  WS02004406           JUNCTION        0.62          0.106        2.344
  WS02004405           JUNCTION        0.64          0.137        2.663
  WS02006109           JUNCTION        1.11          0.447        1.373
  WS02006110           JUNCTION        0.73          0.204        1.646
  WS02006112           JUNCTION        0.79          0.393        1.287
  WS02006115           JUNCTION        0.29          0.057        2.193
  WS02006116           JUNCTION        0.33          0.063        2.227
  WS02006230           JUNCTION        0.62          0.309        1.261
  WS02006231           JUNCTION        0.63          0.315        1.215
  WS02006232           JUNCTION        1.18          0.419        1.061
  WS02006234           JUNCTION        0.62          0.289        0.951
  WS02006235           JUNCTION        0.67          0.312        0.978
  WS02006238           JUNCTION        0.84          0.317        1.113
  WS02006240           JUNCTION        0.54          0.211        1.179
  WS02006242           JUNCTION        0.63          0.672        0.148
  WS02006243           JUNCTION        0.39          0.086        0.684
  WS02006245           JUNCTION        0.21          0.032        0.818
  WS02006247           JUNCTION        0.19          0.031        0.729
  WS02006239           JUNCTION        0.59          0.240        1.050
  WS02006252           JUNCTION        0.76          0.189        0.911
  WS02006228           JUNCTION        1.03          0.557        1.643
  YS02001748           JUNCTION        5.99          0.384        0.806
  YS02001751           JUNCTION        6.02          0.746        0.454
  YS02001754           JUNCTION        6.05          0.794        0.356
  YS02001762           JUNCTION        6.09          1.043        0.107
  YS02001765           JUNCTION        6.08          0.989        0.111
  YS02001767           JUNCTION        6.07          0.944        0.086
  YS02001770           JUNCTION        6.07          0.899        0.021
  YS02001774           JUNCTION        6.08          0.983        0.067
  YS02001779           JUNCTION        6.04          0.680        0.000
  YS02001882           JUNCTION        1.77          0.814        0.016
  YS02001884           JUNCTION        1.80          0.820        0.050
  YS02001759           JUNCTION        6.09          1.083        0.127
  YS02001887           JUNCTION        1.88          0.839        0.111
  YS02001890           JUNCTION        1.91          0.760        0.000
  YS02001898           JUNCTION        1.73          0.554        0.186
  YS02001901           JUNCTION        1.84          0.701        0.169
  YS02001904           JUNCTION        1.83          0.660        0.190
  YS02001907           JUNCTION        2.25          0.950        0.000
  YS02001910           JUNCTION        1.95          0.996        0.104
  YS02001915           JUNCTION        1.76          0.927        0.073
  YS02001918           JUNCTION        1.55          0.810        0.000
  YS02001619           JUNCTION        6.02          0.610        0.000
  YS02001629           JUNCTION        6.02          0.470        0.000
  YS02001641           JUNCTION        6.08          0.935        0.165
  YS02001644           JUNCTION        6.08          0.920        0.000
  YS02001652           JUNCTION        6.05          1.130        0.000
  YS02001655           JUNCTION        6.02          1.122        0.078
  YS02001920           JUNCTION        1.58          1.125        0.015
  YS02001923           JUNCTION        0.01          0.820        0.000
  YS02001926           JUNCTION        0.01          0.900        0.000
  YS02001658           JUNCTION        5.99          1.090        0.210
  YS02001661           JUNCTION        0.17          1.127        0.263
  YS02001622           JUNCTION        6.02          0.620        0.000
  YS02001633           JUNCTION        6.08          0.925        0.135
  YS02001649           JUNCTION        6.08          1.050        0.000
  YS02001757           JUNCTION        6.12          1.185        0.025
  YS02001895           JUNCTION        1.74          0.579        0.171
  YS02001625           JUNCTION        6.05          0.780        0.000
  YS02163301           JUNCTION        6.07          0.897        0.133
  YS02163601           JUNCTION        6.09          0.988        0.092
  YS02164001           JUNCTION        6.08          0.919        0.181
  YS02001647           JUNCTION        6.05          0.806        0.094
  YS02006553           JUNCTION        2.30          1.009        0.181
  YS02006561           JUNCTION        1.66          1.150        0.000
  YS02006556           JUNCTION        2.12          1.096        0.254
  YS02006558           JUNCTION        2.09          1.141        0.259
  YS02001783           JUNCTION        2.14          1.393        0.207
  YS02001784           JUNCTION        2.17          1.292        0.198
  YS02001786           JUNCTION        2.11          1.430        0.000
  YS02001788           JUNCTION        2.09          1.480        0.000
  YS02001790           JUNCTION        3.09          1.157        0.000
  YS02001791           JUNCTION        3.23          1.662        0.258
  YS02001793           JUNCTION        3.29          1.787        0.813
  
  
  *********************
  Node Flooding Summary
  *********************
  
  Flooding refers to all water that overflows a node, whether it ponds or not.
  --------------------------------------------------------------------------
                                                             Total   Maximum
                                 Maximum   Time of Max       Flood    Ponded
                        Hours       Rate    Occurrence      Volume     Depth
  Node                 Flooded       LPS   days hr:min    10^6 ltr    Meters
  --------------------------------------------------------------------------
  YS02001779              3.46    718.23      0  02:52       3.401     0.000
  YS02001890              0.57     89.33      0  02:16       0.101     0.000
  YS02001907              1.40    614.91      0  01:58       2.003     0.000
  YS02001918              0.01     10.22      0  01:57       0.000     0.000
  YS02001619              0.01     64.07      0  01:48       0.000     0.000
  YS02001629              0.01    181.76      0  01:47       0.001     0.000
  YS02001644              5.47   1538.74      0  02:52      11.496     0.000
  YS02001652              0.01      3.03      0  02:09       0.000     0.000
  YS02001923              0.01     90.48      0  01:57       0.000     0.000
  YS02001926              0.01    303.41      0  01:57       0.000     0.000
  YS02001622              0.01     62.85      0  01:48       0.000     0.000
  YS02001649              0.03     37.16      0  02:11       0.001     0.000
  YS02001625              2.01    326.71      0  02:16       1.447     0.000
  YS02006561              0.01     57.65      0  01:54       0.000     0.000
  YS02001786              0.01     67.08      0  01:54       0.000     0.000
  YS02001788              0.01    148.08      0  01:54       0.000     0.000
  YS02001790              0.01    223.77      0  01:53       0.000     0.000
  JK-storage              2.89    969.95      0  02:15       6.780     0.000
  XR-storage              5.13    559.63      0  03:01       4.742     0.000
  
  
  **********************
  Storage Volume Summary
  **********************
  
  --------------------------------------------------------------------------------------------------
                         Average     Avg  Evap Exfil       Maximum     Max    Time of Max    Maximum
                          Volume    Pcnt  Pcnt  Pcnt        Volume    Pcnt     Occurrence    Outflow
  Storage Unit           1000 m3    Full  Loss  Loss       1000 m3    Full    days hr:min        LPS
  --------------------------------------------------------------------------------------------------
  JK-storage               0.157      54     0     0         0.291     100       0  01:54     600.00
  CC-storage               3.195      20     0     0         4.031      26       0  02:47     399.96
  XR-storage               0.851      92     0     0         0.926     100       0  02:06     379.95
  
  
  ***********************
  Outfall Loading Summary
  ***********************
  
  -----------------------------------------------------------
                         Flow       Avg       Max       Total
                         Freq      Flow      Flow      Volume
  Outfall Node           Pcnt       LPS       LPS    10^6 ltr
  -----------------------------------------------------------
  WSC                  100.00    581.96   1114.17      15.284
  3                     75.22    213.01    605.81       3.007
  4                     20.62     73.70    188.30       0.295
  5                      0.00      0.00      0.00       0.000
  -----------------------------------------------------------
  System                48.96    868.66   1839.47      18.586
  
  
  ********************
  Link Flow Summary
  ********************
  
  -----------------------------------------------------------------------------
                                 Maximum  Time of Max   Maximum    Max/    Max/
                                  |Flow|   Occurrence   |Veloc|    Full    Full
  Link                 Type          LPS  days hr:min     m/sec    Flow   Depth
  -----------------------------------------------------------------------------
  WS02003066WSF200     CONDUIT    811.74     0  01:59      3.00    0.14    0.29
  WS02006287WS02006284 CONDUIT    655.87     0  01:55      2.36    0.30    0.38
  WS02006284WS02006280 CONDUIT    656.05     0  01:55      2.59    0.27    0.36
  WS02006280WS02006229 CONDUIT    656.06     0  01:55      4.21    0.14    0.25
  WS02006229WS02006228 CONDUIT    786.73     0  01:56      1.57    2.61    1.00
  WS02006256WS02006235 CONDUIT    149.97     0  01:15      2.14    1.59    1.00
  WS02006253WS02006251 CONDUIT    143.27     0  01:54      0.59    0.43    0.91
  WS02006252WS02006251 CONDUIT    400.25     0  06:10      3.19    1.47    1.00
  WS02006251WS02006249 CONDUIT    393.11     0  06:10      1.16    1.13    0.91
  WS02006249WS02006248 CONDUIT    347.20     0  06:10      1.11    1.90    0.91
  WS02006248WS02006247 CONDUIT    344.64     0  06:10      1.08    0.75    0.96
  WS02006247WS02006245 CONDUIT    342.08     0  06:10      1.05    2.71    1.00
  WS02006245WS02006243 CONDUIT    339.92     0  06:11      1.07    1.01    1.00
  WS02006243WS02006242 CONDUIT    336.14     0  06:11      0.97    0.72    1.00
  WS02006242WS02006240 CONDUIT    333.39     0  07:20      0.93    1.32    1.00
  WS02006240WS02006239 CONDUIT    332.78     0  07:20      0.98    1.05    1.00
  WS02006239WS02006238 CONDUIT    330.59     0  07:20      0.90    1.06    1.00
  WS02006238WS02006235 CONDUIT    329.01     0  07:20      0.90    0.73    1.00
  WS02006235WS02006234 CONDUIT    385.76     0  05:41      1.03    4.07    1.00
  WS02006234WS02006232 CONDUIT    385.27     0  05:42      1.01    0.78    1.00
  WS02006232WS02006231 CONDUIT    385.06     0  05:42      1.05    0.81    1.00
  WS02006231WS02006230 CONDUIT    383.17     0  05:42      1.34    5.81    1.00
  WS02006230WS02006229 CONDUIT    392.66     0  05:43      1.02    8.74    1.00
  WS02006228WS02006109 CONDUIT    786.73     0  01:56      1.57    3.44    1.00
  WS02006116WS02004401 CONDUIT    812.19     0  01:57      1.03    1.12    1.00
  WS02006115WS02006116 CONDUIT    812.19     0  01:57      1.03    1.04    1.00
  WS02006113WS02006111 CONDUIT    787.76     0  01:57      2.64    0.94    0.77
  WS02006112WS02006115 CONDUIT    812.28     0  01:57      1.03    0.48    1.00
  WS02006111WS02006112 CONDUIT    788.23     0  01:58      1.75    0.37    0.88
  WS02006110WS02006113 CONDUIT    787.89     0  01:56      1.68    0.72    0.89
  WS02006109WS02006110 CONDUIT    787.92     0  01:56      1.57    1.51    1.00
  WS02004411WS02004412 CONDUIT    811.83     0  01:59      1.15    1.15    0.84
  WS02004401WS02004402 CONDUIT    812.19     0  01:57      1.03    0.98    1.00
  WS02004413WS02003067 CONDUIT    811.84     0  01:59      1.40    0.35    0.69
  WS02004412WS02004413 CONDUIT    811.83     0  01:59      1.09    0.54    0.91
  WS02004410WS02004411 CONDUIT    811.88     0  01:58      1.14    1.11    0.85
  WS02004409WS02004410 CONDUIT    812.02     0  01:58      1.13    1.05    0.86
  WS02004407WS02004409 CONDUIT    812.38     0  01:57      1.66    0.29    0.61
  WS02004406WS02004407 CONDUIT    812.40     0  01:57      1.42    0.36    0.68
  WS02004405WS02004406 CONDUIT    812.40     0  01:57      1.03    1.60    1.00
  WS02004404WS02004405 CONDUIT    812.36     0  01:57      1.03    7.96    1.00
  WS02004403WS02004404 CONDUIT    812.20     0  01:57      1.03    0.59    1.00
  WS02004402WS02004403 CONDUIT    812.20     0  01:57      1.03    1.17    1.00
  WS02004139WS02001211 CONDUIT    368.33     0  04:30      0.81    0.47    0.57
  WS02004138WS02004139 CONDUIT    378.68     0  03:50      3.34    0.08    0.42
  WS02003067WS02003066 CONDUIT    811.82     0  01:59      1.52    0.26    0.48
  WS02001213WS02003059 CONDUIT    364.14     0  04:32      0.78    0.60    0.79
  WS02001212WS02001213 CONDUIT    365.49     0  04:31      1.26    0.56    0.48
  WS02001211WS02001212 CONDUIT    367.86     0  04:31      0.76    0.28    0.63
  WS02003072WS02003073 CONDUIT   1112.10     0  02:05      1.83    2.40    0.53
  WS02003069WS02003072 CONDUIT   1111.99     0  02:04      1.71    0.54    0.56
  WS02003060WS02003069 CONDUIT   1111.74     0  02:04      1.94    0.44    0.50
  WS02003059WS02003060 CONDUIT    363.62     0  04:32      0.82    0.24    0.70
  HS02004901HS02004770 CONDUIT     31.96     0  01:52      0.09    0.12    0.51
  HS02004876HS02004881 CONDUIT    126.38     0  01:55      1.20    1.34    0.15
  HS02004870HS02004876 CONDUIT    102.10     0  01:55      0.82    0.07    0.18
  HS02004842HS02004848 CONDUIT     15.55     0  02:06      0.07    0.01    0.33
  HS02004837HS02004842 CONDUIT     15.96     0  02:07      0.42    0.01    0.35
  HS02004830HS02004837 CONDUIT     62.46     0  01:55      0.66    0.06    0.14
  HS02004824HS02004830 CONDUIT     62.57     0  01:56      0.62    0.08    0.16
  HS02004817HS02004824 CONDUIT    123.43     0  01:59      0.31    0.06    0.58
  HS02004770HS02004777 CONDUIT    165.77     0  01:51      0.46    0.30    0.52
  HS02004799HS02004480 CONDUIT    414.31     0  01:53      1.02    0.52    0.58
  HS02004792HS02004799 CONDUIT    377.21     0  01:52      1.15    0.23    0.47
  HS02004788HS02004792 CONDUIT    218.44     0  01:53      1.24    0.14    0.25
  HS02004785HS02004788 CONDUIT    165.54     0  01:53      0.86    1.25    0.27
  HS02004777HS02004785 CONDUIT    165.44     0  01:52      0.54    0.20    0.44
  HS02004480HS02004478 CONDUIT    492.13     0  01:53      1.52    2.07    0.46
  HS02004479HS02004480 CONDUIT     78.31     0  01:54      0.27    0.08    0.55
  HS02004862HS02004870 CONDUIT     77.52     0  01:55      0.79    0.08    0.14
  HS02004848HS02004852 CONDUIT     36.10     0  01:55      0.52    0.04    0.10
  HS02004856HS02004862 CONDUIT     54.46     0  01:55      0.59    0.05    0.13
  HS02004852HS02004856 CONDUIT     36.15     0  01:56      0.33    0.04    0.16
  HS02004802HS02004478 CONDUIT    170.22     0  01:58      0.53    0.15    0.47
  HS02004478WS02006287 CONDUIT    655.82     0  01:54      2.08    0.18    0.35
  HS02004817HS02004807 CONDUIT    125.36     0  01:59      0.24    0.07    0.75
  HS02004807HS02004802 CONDUIT    169.24     0  01:58      0.47    0.32    0.53
  YS02001759YS02001757 CONDUIT    872.32     0  02:04      1.11    0.62    1.00
  YS02001762YS02001759 CONDUIT    436.95     0  02:04      0.56    0.50    1.00
  YS02001765YS02001762 CONDUIT    436.90     0  02:04      0.56    0.41    1.00
  YS02001770YS02001767 CONDUIT    436.47     0  02:04      0.56    1.73    1.00
  YS02001774YS02001770 CONDUIT    718.16     0  02:52      0.91    0.46    1.00
  YS02001779YS02001774 CONDUIT    718.23     0  02:52      0.91    0.36    1.00
  YS02001649YS02001757 CONDUIT    979.79     0  02:00      1.25    0.59    1.00
  YS02001767YS02001765 CONDUIT    436.92     0  02:04      0.56    0.55    1.00
  YS02006561YS02001783 CONDUIT    968.39     0  02:14      2.20    0.50    1.00
  YS02001783YS02001784 CONDUIT    968.43     0  02:15      1.93    1.33    1.00
  YS02001784YS02001785 CONDUIT    969.47     0  02:15      1.94    2.26    1.00
  YS02001788YS02001790 CONDUIT    969.60     0  02:15      2.41    0.71    1.00
  YS02001790YS02001791 CONDUIT    969.79     0  02:15      2.95    1.06    1.00
  YS02001791YS02001793 CONDUIT    969.96     0  02:15      5.80    0.42    1.00
  YS02001910YS02001907 CONDUIT    630.24     0  01:58      0.80    0.36    1.00
  YS02001786YS02001788 CONDUIT    969.79     0  02:20      2.30    1.87    1.00
  YS02001915YS02001910 CONDUIT    630.14     0  01:58      0.80    0.31    1.00
  YS02001918YS02001915 CONDUIT    359.66     0  01:58      0.46    0.20    1.00
  YS02001923YS02001920 CONDUIT    356.44     0  01:58      0.79    0.16    1.00
  YS02001926YS02001923 CONDUIT    308.23     0  01:57      0.87    0.44    1.00
  YS02001929YS02001926 CONDUIT    224.93     0  01:58      0.93    0.11    0.96
  YS02001920YS02001918 CONDUIT    359.35     0  01:58      0.75    0.35    1.00
  YS02001629YS02163301 CONDUIT    227.32     0  01:48      0.29    0.28    1.00
  YS02001619YS02001622 CONDUIT    336.79     0  02:16      0.76    0.50    1.00
  YS02001622YS02001625 CONDUIT    336.66     0  02:16      0.43    0.18    1.00
  YS02001625YS02001629 CONDUIT    211.61     0  01:47      0.31    0.10    1.00
  YS02163301YS02001633 CONDUIT    227.35     0  01:48      0.29    0.21    1.00
  YS02163601YS02164001 CONDUIT    417.78     0  01:51      0.53    0.37    1.00
  YS02164001YS02001641 CONDUIT    418.12     0  01:51      0.53    0.57    1.00
  YS02001641YS02001644 CONDUIT    418.12     0  01:51      0.53    1.35    1.00
  YS02001647YS02001649 CONDUIT    815.65     0  02:51      1.04    0.43    1.00
  YS02006553YS02006556 CONDUIT    683.37     0  03:22      0.87    0.58    1.00
  YS02006556YS02006558 CONDUIT    683.96     0  03:22      0.87    0.54    1.00
  YSB6556YSB1171       CONDUIT     43.98     0  01:54      0.13    0.05    0.82
  YS02001907YS02006553 CONDUIT    683.06     0  03:22      0.76    0.80    1.00
  YS02006558YS02006561 CONDUIT    979.78     0  01:54      3.59    2.17    1.00
  YS02001633YS02163601 CONDUIT    417.79     0  01:51      0.53    0.44    1.00
  YS02001644YS02001647 CONDUIT    815.78     0  02:51      1.04    0.48    1.00
  YS02001745YS02001748 CONDUIT    395.79     0  02:16      1.73    0.15    0.98
  YS02001748YS02001751 CONDUIT    396.02     0  02:16      1.25    0.20    1.00
  YS02001751YS02001754 CONDUIT    395.77     0  02:16      1.02    0.19    1.00
  YS02001754YS02001757 CONDUIT    395.82     0  02:16      0.50    0.16    1.00
  YS02001882YS02001884 CONDUIT     19.47     0  01:52      0.12    0.02    1.00
  YS02001884YS02001887 CONDUIT     45.30     0  01:52      0.09    0.06    1.00
  YS02001890YS02001895 CONDUIT    517.72     0  02:12      0.66    0.24    1.00
  YS02001895YS02001898 CONDUIT    517.83     0  02:12      0.66    0.90    1.00
  YS02001898YS02001901 CONDUIT    517.88     0  02:12      0.66    0.33    1.00
  YS02001901YS02001904 CONDUIT    517.77     0  02:12      0.66    0.80    1.00
  YS02001904YS02001907 CONDUIT    518.00     0  02:12      0.66    0.18    1.00
  YS02001887YS02001890 CONDUIT    606.37     0  02:15      0.77    1.04    1.00
  YS02001652YS02001649 CONDUIT    482.61     0  02:11      0.61    0.24    1.00
  YS02001655YS02001652 CONDUIT    476.86     0  02:15      1.09    0.23    1.00
  YS02001658YS02001655 CONDUIT    476.98     0  02:11      1.45    0.20    1.00
  YS02001661YS02001658 CONDUIT    495.14     0  02:09      1.85    0.19    1.00
  YS02001664YS02001661 CONDUIT    774.74     0  02:05      1.75    0.24    0.77
  YSB1154YSB6556       CONDUIT     43.64     0  01:53      0.18    0.08    0.72
  YSB1174YSB1171       CONDUIT     35.14     0  01:50      0.10    0.05    0.83
  YSB1171HS02004479    CONDUIT     78.00     0  01:54      0.54    0.05    0.67
  HS02004881HS02006253 CONDUIT    139.58     0  01:55      2.23    0.03    0.26
  YS02001793JiankangQianchi CONDUIT    985.35     0  01:52     12.69    0.08    1.00
  YS02001757CaochengTiaoxuchi CONDUIT   2139.15     0  02:03      3.75    0.94    1.00
  WSF200WS02003060     CONDUIT    810.91     0  02:00      2.05    0.18    0.40
  1                    CONDUIT   1114.17     0  02:06      3.42    0.39    0.43
  2                    CONDUIT    188.30     0  02:00      5.75    0.45    0.47
  3                    CONDUIT    605.81     0  02:00     10.23    0.97    0.80
  4                    CONDUIT      0.00     0  00:00      0.00    0.00    0.00
  CC-Pump-1            PUMP       200.00     0  01:50              1.00
  CC-Pump-2            PUMP       200.00     0  05:20              1.00
  JK-Pump-1            PUMP       300.00     0  03:40              1.00
  JK-Pump-2            PUMP       300.00     0  01:20              1.00
  XR-Pump-1            PUMP        95.00     0  00:00              1.00
  XR-Pump-2            PUMP        95.00     0  00:00              1.00
  XR-Pump-3            PUMP        95.00     0  00:00              1.00
  XR-Pump-4            PUMP        95.00     0  01:20              1.00
  
  
  ***************************
  Flow Classification Summary
  ***************************
  
  -------------------------------------------------------------------------------------
                      Adjusted    ---------- Fraction of Time in Flow Class ---------- 
                       /Actual         Up    Down  Sub   Sup   Up    Down  Norm  Inlet 
  Conduit               Length    Dry  Dry   Dry   Crit  Crit  Crit  Crit  Ltd   Ctrl  
  -------------------------------------------------------------------------------------
  WS02003066WSF200        1.00   0.07  0.00  0.00  0.00  0.93  0.00  0.00  0.67  0.00
  WS02006287WS02006284    1.00   0.02  0.02  0.00  0.67  0.29  0.00  0.00  0.65  0.00
  WS02006284WS02006280    1.00   0.03  0.00  0.00  0.00  0.00  0.00  0.97  0.00  0.00
  WS02006280WS02006229    1.00   0.03  0.00  0.00  0.00  0.00  0.00  0.97  0.00  0.00
  WS02006229WS02006228    1.00   0.00  0.00  0.00  1.00  0.00  0.00  0.00  0.00  0.00
  WS02006256WS02006235    1.00   0.03  0.00  0.00  0.97  0.00  0.00  0.00  0.00  0.00
  WS02006253WS02006251    1.00   0.01  0.01  0.00  0.97  0.00  0.01  0.00  0.00  0.00
  WS02006252WS02006251    1.00   0.07  0.00  0.00  0.00  0.00  0.93  0.00  0.00  0.00
  WS02006251WS02006249    1.00   0.00  0.00  0.00  1.00  0.00  0.00  0.00  0.24  0.00
  WS02006249WS02006248    1.00   0.00  0.00  0.00  0.88  0.00  0.11  0.00  0.00  0.00
  WS02006248WS02006247    1.00   0.00  0.00  0.00  0.99  0.00  0.00  0.01  0.15  0.00
  WS02006247WS02006245    1.00   0.00  0.00  0.00  0.98  0.00  0.00  0.02  0.00  0.00
  WS02006245WS02006243    1.00   0.01  0.00  0.00  0.96  0.00  0.00  0.04  0.01  0.00
  WS02006243WS02006242    1.00   0.01  0.00  0.00  0.97  0.00  0.00  0.02  0.14  0.00
  WS02006242WS02006240    1.00   0.01  0.02  0.00  0.97  0.00  0.00  0.00  0.00  0.00
  WS02006240WS02006239    1.00   0.03  0.00  0.00  0.97  0.00  0.00  0.00  0.00  0.00
  WS02006239WS02006238    1.00   0.03  0.00  0.00  0.97  0.00  0.00  0.00  0.00  0.00
  WS02006238WS02006235    1.00   0.03  0.00  0.00  0.97  0.00  0.00  0.00  0.00  0.00
  WS02006235WS02006234    1.00   0.03  0.00  0.00  0.97  0.00  0.00  0.00  0.00  0.00
  WS02006234WS02006232    1.00   0.03  0.00  0.00  0.97  0.00  0.00  0.00  0.00  0.00
  WS02006232WS02006231    1.00   0.03  0.00  0.00  0.97  0.00  0.00  0.00  0.00  0.00
  WS02006231WS02006230    1.00   0.03  0.00  0.00  0.50  0.00  0.47  0.00  0.00  0.00
  WS02006230WS02006229    1.00   0.00  0.00  0.00  0.99  0.00  0.00  0.01  0.00  0.00
  WS02006228WS02006109    1.00   0.00  0.00  0.00  1.00  0.00  0.00  0.00  0.00  0.00
  WS02006116WS02004401    1.00   0.02  0.00  0.00  0.98  0.00  0.00  0.00  0.00  0.00
  WS02006115WS02006116    1.00   0.02  0.00  0.00  0.95  0.00  0.00  0.03  0.00  0.00
  WS02006113WS02006111    1.00   0.01  0.00  0.00  0.07  0.92  0.00  0.00  0.17  0.00
  WS02006112WS02006115    1.00   0.01  0.01  0.00  0.98  0.00  0.00  0.00  0.00  0.00
  WS02006111WS02006112    1.00   0.01  0.00  0.00  0.98  0.00  0.00  0.00  0.84  0.00
  WS02006110WS02006113    1.00   0.00  0.01  0.00  0.99  0.00  0.00  0.00  0.00  0.00
  WS02006109WS02006110    1.00   0.00  0.00  0.00  1.00  0.00  0.00  0.00  0.00  0.00
  WS02004411WS02004412    1.00   0.06  0.00  0.00  0.94  0.00  0.00  0.00  0.00  0.00
  WS02004401WS02004402    1.00   0.02  0.00  0.00  0.98  0.00  0.00  0.00  0.04  0.00
  WS02004413WS02003067    1.00   0.06  0.01  0.00  0.00  0.00  0.93  0.00  0.00  0.00
  WS02004412WS02004413    1.00   0.06  0.00  0.00  0.94  0.00  0.00  0.00  0.00  0.00
  WS02004410WS02004411    1.00   0.06  0.00  0.00  0.94  0.00  0.00  0.00  0.00  0.00
  WS02004409WS02004410    1.00   0.06  0.00  0.00  0.94  0.00  0.00  0.00  0.00  0.00
  WS02004407WS02004409    1.00   0.06  0.00  0.00  0.94  0.01  0.00  0.00  0.80  0.00
  WS02004406WS02004407    1.00   0.00  0.06  0.00  0.94  0.00  0.00  0.00  0.00  0.00
  WS02004405WS02004406    1.00   0.00  0.00  0.00  1.00  0.00  0.00  0.00  0.04  0.00
  WS02004404WS02004405    1.00   0.00  0.00  0.00  1.00  0.00  0.00  0.00  0.00  0.00
  WS02004403WS02004404    1.00   0.00  0.02  0.00  0.98  0.00  0.00  0.00  0.04  0.00
  WS02004402WS02004403    1.00   0.02  0.00  0.00  0.98  0.00  0.00  0.00  0.00  0.00
  WS02004139WS02001211    1.00   0.00  0.00  0.00  1.00  0.00  0.00  0.00  0.00  0.00
  WS02004138WS02004139    1.00   0.00  0.00  0.00  1.00  0.00  0.00  0.00  1.00  0.00
  WS02003067WS02003066    1.00   0.07  0.00  0.00  0.93  0.00  0.00  0.00  0.00  0.00
  WS02001213WS02003059    1.00   0.00  0.00  0.00  1.00  0.00  0.00  0.00  0.00  0.00
  WS02001212WS02001213    1.00   0.00  0.00  0.00  0.83  0.00  0.17  0.00  0.00  0.00
  WS02001211WS02001212    1.00   0.00  0.00  0.00  1.00  0.00  0.00  0.00  0.00  0.00
  WS02003072WS02003073    1.00   0.00  0.00  0.00  0.00  0.00  0.00  1.00  0.00  0.00
  WS02003069WS02003072    1.00   0.00  0.00  0.00  1.00  0.00  0.00  0.00  0.21  0.00
  WS02003060WS02003069    1.00   0.00  0.00  0.00  0.99  0.01  0.00  0.00  0.06  0.00
  WS02003059WS02003060    1.00   0.00  0.00  0.00  1.00  0.00  0.00  0.00  0.01  0.00
  HS02004901HS02004770    1.00   0.02  0.00  0.00  0.98  0.00  0.00  0.00  0.00  0.00
  HS02004876HS02004881    1.00   0.00  0.00  0.00  0.86  0.14  0.00  0.00  0.00  0.00
  HS02004870HS02004876    1.00   0.00  0.00  0.00  1.00  0.00  0.00  0.00  0.95  0.00
  HS02004842HS02004848    1.00   0.00  0.02  0.00  0.98  0.00  0.00  0.00  0.57  0.00
  HS02004837HS02004842    1.00   0.00  0.00  0.00  1.00  0.00  0.00  0.00  0.11  0.00
  HS02004830HS02004837    1.00   0.00  0.00  0.00  1.00  0.00  0.00  0.00  0.99  0.00
  HS02004824HS02004830    1.00   0.00  0.00  0.00  1.00  0.00  0.00  0.00  0.03  0.00
  HS02004817HS02004824    1.00   0.00  0.00  0.00  1.00  0.00  0.00  0.00  0.94  0.00
  HS02004770HS02004777    1.00   0.00  0.02  0.00  0.98  0.00  0.00  0.00  0.03  0.00
  HS02004799HS02004480    1.00   0.00  0.01  0.00  0.97  0.00  0.03  0.00  0.00  0.00
  HS02004792HS02004799    1.00   0.00  0.00  0.00  1.00  0.00  0.00  0.00  0.98  0.00
  HS02004788HS02004792    1.00   0.00  0.00  0.00  1.00  0.00  0.00  0.00  0.98  0.00
  HS02004785HS02004788    1.00   0.00  0.00  0.00  1.00  0.00  0.00  0.00  0.00  0.00
  HS02004777HS02004785    1.00   0.00  0.00  0.00  1.00  0.00  0.00  0.00  0.13  0.00
  HS02004480HS02004478    1.00   0.02  0.00  0.00  0.73  0.00  0.00  0.24  0.00  0.00
  HS02004479HS02004480    1.00   0.01  0.00  0.00  0.99  0.00  0.00  0.00  0.12  0.00
  HS02004862HS02004870    1.00   0.00  0.00  0.00  1.00  0.00  0.00  0.00  0.04  0.00
  HS02004848HS02004852    1.00   0.02  0.00  0.00  0.98  0.00  0.00  0.00  0.78  0.00
  HS02004856HS02004862    1.00   0.00  0.05  0.00  0.95  0.00  0.00  0.00  0.82  0.00
  HS02004852HS02004856    1.00   0.02  0.00  0.00  0.97  0.00  0.00  0.00  0.77  0.00
  HS02004802HS02004478    1.00   0.02  0.00  0.00  0.97  0.00  0.00  0.00  0.03  0.00
  HS02004478WS02006287    1.00   0.04  0.00  0.00  0.76  0.20  0.00  0.00  0.62  0.00
  HS02004817HS02004807    1.00   0.00  0.02  0.00  0.98  0.00  0.00  0.00  0.01  0.00
  HS02004807HS02004802    1.00   0.02  0.00  0.00  0.97  0.00  0.00  0.00  0.00  0.00
  YS02001759YS02001757    1.00   0.00  0.00  0.00  1.00  0.00  0.00  0.00  0.16  0.00
  YS02001762YS02001759    1.00   0.00  0.00  0.00  1.00  0.00  0.00  0.00  0.03  0.00
  YS02001765YS02001762    1.00   0.00  0.00  0.00  1.00  0.00  0.00  0.00  0.14  0.00
  YS02001770YS02001767    1.00   0.00  0.00  0.00  1.00  0.00  0.00  0.00  0.00  0.00
  YS02001774YS02001770    1.00   0.00  0.03  0.00  0.97  0.00  0.00  0.00  0.03  0.00
  YS02001779YS02001774    1.00   0.00  0.00  0.00  1.00  0.00  0.00  0.00  0.18  0.00
  YS02001649YS02001757    1.00   0.00  0.00  0.00  1.00  0.00  0.00  0.00  0.16  0.00
  YS02001767YS02001765    1.00   0.00  0.00  0.00  1.00  0.00  0.00  0.00  0.00  0.00
  YS02006561YS02001783    1.00   0.05  0.00  0.00  0.42  0.52  0.00  0.00  0.49  0.00
  YS02001783YS02001784    1.00   0.00  0.05  0.00  0.95  0.00  0.00  0.00  0.00  0.00
  YS02001784YS02001785    1.00   0.00  0.00  0.00  1.00  0.00  0.00  0.00  0.17  0.00
  YS02001788YS02001790    1.00   0.00  0.00  0.00  0.50  0.50  0.00  0.00  0.44  0.00
  YS02001790YS02001791    1.00   0.00  0.00  0.00  0.45  0.55  0.00  0.00  0.37  0.00
  YS02001791YS02001793    1.00   0.00  0.00  0.00  0.46  0.54  0.00  0.00  0.01  0.00
  YS02001910YS02001907    1.00   0.00  0.00  0.00  0.99  0.00  0.00  0.00  0.12  0.00
  YS02001786YS02001788    1.00   0.00  0.00  0.00  0.48  0.52  0.00  0.00  0.00  0.00
  YS02001915YS02001910    1.00   0.00  0.00  0.00  0.99  0.01  0.00  0.00  0.16  0.00
  YS02001918YS02001915    1.00   0.00  0.00  0.00  1.00  0.00  0.00  0.00  0.52  0.00
  YS02001923YS02001920    1.00   0.00  0.00  0.00  1.00  0.00  0.00  0.00  0.74  0.00
  YS02001926YS02001923    1.00   0.00  0.01  0.00  0.18  0.00  0.80  0.00  0.00  0.00
  YS02001929YS02001926    1.00   0.00  0.02  0.00  0.98  0.00  0.00  0.00  0.66  0.00
  YS02001920YS02001918    1.00   0.00  0.00  0.00  1.00  0.00  0.00  0.00  0.00  0.00
  YS02001629YS02163301    1.00   0.03  0.01  0.00  0.96  0.00  0.00  0.00  0.00  0.00
  YS02001619YS02001622    1.00   0.02  0.00  0.00  0.98  0.00  0.00  0.00  0.00  0.00
  YS02001622YS02001625    1.00   0.02  0.00  0.00  0.98  0.00  0.00  0.00  0.05  0.00
  YS02001625YS02001629    1.00   0.02  0.03  0.00  0.93  0.00  0.01  0.00  0.00  0.00
  YS02163301YS02001633    1.00   0.00  0.03  0.00  0.97  0.00  0.00  0.00  0.00  0.00
  YS02163601YS02164001    1.00   0.00  0.02  0.00  0.98  0.00  0.00  0.00  0.00  0.00
  YS02164001YS02001641    1.00   0.00  0.01  0.00  0.98  0.00  0.00  0.00  0.06  0.00
  YS02001641YS02001644    1.00   0.00  0.00  0.00  1.00  0.00  0.00  0.00  0.00  0.00
  YS02001647YS02001649    1.00   0.00  0.05  0.00  0.95  0.00  0.00  0.00  0.01  0.00
  YS02006553YS02006556    1.00   0.00  0.00  0.00  1.00  0.00  0.00  0.00  0.03  0.00
  YS02006556YS02006558    1.00   0.00  0.00  0.00  1.00  0.00  0.00  0.00  0.00  0.00
  YSB6556YSB1171          1.00   0.01  0.02  0.00  0.98  0.00  0.00  0.00  0.00  0.00
  YS02001907YS02006553    1.00   0.00  0.00  0.00  1.00  0.00  0.00  0.00  0.00  0.00
  YS02006558YS02006561    1.00   0.05  0.00  0.00  0.21  0.73  0.00  0.00  0.42  0.00
  YS02001633YS02163601    1.00   0.00  0.00  0.00  1.00  0.00  0.00  0.00  0.15  0.00
  YS02001644YS02001647    1.00   0.00  0.05  0.00  0.95  0.00  0.00  0.00  0.00  0.00
  YS02001745YS02001748    1.00   0.00  0.00  0.00  0.91  0.00  0.00  0.08  0.01  0.00
  YS02001748YS02001751    1.00   0.00  0.00  0.00  0.96  0.04  0.00  0.00  0.14  0.00
  YS02001751YS02001754    1.00   0.00  0.00  0.00  0.94  0.00  0.00  0.06  0.01  0.00
  YS02001754YS02001757    1.00   0.00  0.00  0.00  1.00  0.00  0.00  0.00  0.18  0.00
  YS02001882YS02001884    1.00   0.03  0.00  0.00  0.97  0.00  0.00  0.00  0.00  0.00
  YS02001884YS02001887    1.00   0.01  0.01  0.00  0.98  0.00  0.00  0.00  0.00  0.00
  YS02001890YS02001895    1.00   0.00  0.04  0.00  0.96  0.00  0.00  0.00  0.00  0.00
  YS02001895YS02001898    1.00   0.04  0.00  0.00  0.94  0.00  0.02  0.00  0.00  0.00
  YS02001898YS02001901    1.00   0.04  0.00  0.00  0.96  0.00  0.00  0.00  0.01  0.00
  YS02001901YS02001904    1.00   0.04  0.00  0.00  0.96  0.00  0.00  0.00  0.00  0.00
  YS02001904YS02001907    1.00   0.00  0.04  0.00  0.96  0.00  0.00  0.00  0.00  0.00
  YS02001887YS02001890    1.00   0.00  0.00  0.00  0.99  0.00  0.01  0.00  0.00  0.00
  YS02001652YS02001649    1.00   0.00  0.00  0.00  0.99  0.01  0.00  0.00  0.16  0.00
  YS02001655YS02001652    1.00   0.00  0.00  0.00  0.94  0.00  0.00  0.06  0.01  0.00
  YS02001658YS02001655    1.00   0.00  0.03  0.00  0.93  0.04  0.00  0.00  0.01  0.00
  YS02001661YS02001658    1.00   0.03  0.00  0.00  0.91  0.06  0.00  0.00  0.00  0.00
  YS02001664YS02001661    1.00   0.02  0.00  0.00  0.94  0.04  0.00  0.00  0.10  0.00
  YSB1154YSB6556          1.00   0.02  0.00  0.00  0.98  0.00  0.00  0.00  0.02  0.00
  YSB1174YSB1171          1.00   0.01  0.01  0.00  0.98  0.00  0.00  0.00  0.00  0.00
  YSB1171HS02004479       1.00   0.01  0.00  0.00  0.99  0.00  0.00  0.00  0.11  0.00
  HS02004881HS02006253    1.00   0.01  0.00  0.00  0.65  0.03  0.00  0.31  0.48  0.00
  YS02001793JiankangQianchi    1.00   0.00  0.00  0.00  0.70  0.30  0.00  0.00  0.35  0.00
  YS02001757CaochengTiaoxuchi    1.00   0.00  0.07  0.00  0.87  0.06  0.00  0.00  0.00  0.00
  WSF200WS02003060        1.00   0.00  0.07  0.00  0.83  0.09  0.00  0.00  0.29  0.00
  1                       1.00   0.00  0.00  0.00  0.00  1.00  0.00  0.00  0.41  0.00
  2                       1.00   0.79  0.00  0.00  0.00  0.21  0.00  0.00  0.04  0.00
  3                       1.00   0.25  0.00  0.00  0.00  0.75  0.00  0.00  0.23  0.00
  4                       1.00   1.00  0.00  0.00  0.00  0.00  0.00  0.00  0.00  0.00
  
  
  *************************
  Conduit Surcharge Summary
  *************************
  
  ----------------------------------------------------------------------------
                                                           Hours        Hours 
                         --------- Hours Full --------   Above Full   Capacity
  Conduit                Both Ends  Upstream  Dnstream   Normal Flow   Limited
  ----------------------------------------------------------------------------
  WS02006229WS02006228        1.03      1.19      1.03      3.61         1.03
  WS02006256WS02006235        5.54      5.55      6.65      3.21         0.01
  WS02006252WS02006251        0.27      0.27      0.76      0.64         0.01
  WS02006251WS02006249        0.01      0.01      0.01      0.25         0.01
  WS02006249WS02006248        0.01      0.01      0.01      3.02         0.01
  WS02006248WS02006247        0.01      0.01      0.18      0.01         0.01
  WS02006247WS02006245        0.21      0.25      0.21      3.85         0.20
  WS02006245WS02006243        0.24      0.24      0.39      0.02         0.01
  WS02006243WS02006242        0.43      0.43      0.63      0.01         0.01
  WS02006242WS02006240        0.54      0.54      0.85      0.75         0.01
  WS02006240WS02006239        0.56      0.56      0.59      0.05         0.01
  WS02006239WS02006238        0.78      0.78      0.84      0.06         0.01
  WS02006238WS02006235        0.77      0.77      1.10      0.01         0.01
  WS02006235WS02006234        0.62      0.62      0.67      5.45         0.04
  WS02006234WS02006232        0.63      0.63      1.18      0.01         0.01
  WS02006232WS02006231        0.63      0.63      1.18      0.01         0.01
  WS02006231WS02006230        0.62      0.62      0.64      5.60         0.02
  WS02006230WS02006229        1.86      3.10      1.86      6.30         1.84
  WS02006228WS02006109        1.11      1.56      1.11      5.19         1.11
  WS02006116WS02004401        0.50      0.50      0.51      0.42         0.41
  WS02006115WS02006116        0.33      0.33      0.33      0.24         0.23
  WS02006112WS02006115        0.29      0.29      0.79      0.01         0.01
  WS02006111WS02006112        0.01      0.01      4.01      0.01         0.01
  WS02006110WS02006113        0.01      0.01      1.41      0.01         0.01
  WS02006109WS02006110        0.73      0.73      1.56      0.73         0.01
  WS02004411WS02004412        0.01      0.01      0.01      0.47         0.01
  WS02004401WS02004402        0.51      0.51      0.55      0.01         0.01
  WS02004410WS02004411        0.01      0.01      0.01      0.39         0.01
  WS02004409WS02004410        0.01      0.01      0.01      0.25         0.01
  WS02004406WS02004407        0.01      0.01      0.62      0.01         0.01
  WS02004405WS02004406        0.62      0.64      0.62      0.77         0.62
  WS02004404WS02004405        0.64      0.66      0.64      6.28         0.64
  WS02004403WS02004404        0.56      0.56      0.66      0.01         0.01
  WS02004402WS02004403        0.55      0.55      0.56      0.49         0.48
  WS02003072WS02003073        0.01      0.01      0.01      5.73         0.01
  HS02004876HS02004881        0.01      0.01      0.01      0.49         0.01
  HS02004785HS02004788        0.01      0.01      0.01      0.35         0.01
  HS02004480HS02004478        0.01      0.01      0.01      0.79         0.01
  YS02001759YS02001757        6.09      6.09      6.12      0.01         0.01
  YS02001762YS02001759        6.09      6.09      6.09      0.01         0.01
  YS02001765YS02001762        6.08      6.08      6.09      0.01         0.01
  YS02001770YS02001767        6.07      6.07      6.07      1.02         0.67
  YS02001774YS02001770        6.07      6.07      6.08      0.01         0.01
  YS02001779YS02001774        6.04      6.04      6.08      0.01         0.01
  YS02001649YS02001757        6.08      6.08      6.12      0.01         0.01
  YS02001767YS02001765        6.07      6.07      6.08      0.01         0.01
  YS02006561YS02001783        1.66      1.66      2.14      0.01         0.01
  YS02001783YS02001784        2.12      2.14      2.17      2.03         1.94
  YS02001784YS02001785        2.11      2.17      2.11      2.80         2.11
  YS02001788YS02001790        2.09      2.09      3.09      0.01         0.01
  YS02001790YS02001791        3.09      3.09      3.23      1.51         1.51
  YS02001791YS02001793        3.23      3.23      3.31      0.01         0.01
  YS02001910YS02001907        1.95      1.95      2.25      0.01         0.01
  YS02001786YS02001788        2.09      2.11      2.09      2.40         2.09
  YS02001915YS02001910        1.76      1.76      1.95      0.01         0.01
  YS02001918YS02001915        1.55      1.55      1.76      0.01         0.01
  YS02001923YS02001920        1.36      1.36      1.58      0.01         0.01
  YS02001926YS02001923        0.01      0.01      0.01      0.01         0.01
  YS02001929YS02001926        0.01      0.01      0.01      0.01         0.01
  YS02001920YS02001918        1.55      1.55      1.58      0.01         0.01
  YS02001629YS02163301        6.06      6.06      6.07      0.01         0.01
  YS02001619YS02001622        6.02      6.02      6.02      0.01         0.01
  YS02001622YS02001625        6.02      6.02      6.05      0.01         0.01
  YS02001625YS02001629        6.02      6.02      6.05      0.01         0.01
  YS02163301YS02001633        6.07      6.07      6.08      0.01         0.01
  YS02163601YS02164001        6.08      6.08      6.09      0.01         0.01
  YS02164001YS02001641        6.08      6.08      6.08      0.01         0.02
  YS02001641YS02001644        6.08      6.08      6.08      2.21         2.30
  YS02001647YS02001649        6.05      6.05      6.08      0.01         0.01
  YS02006553YS02006556        2.12      2.12      2.30      0.01         0.01
  YS02006556YS02006558        2.18      2.18      2.37      0.01         0.01
  YSB6556YSB1171              0.01      0.01      0.14      0.01         0.01
  YS02001907YS02006553        2.76      2.76      2.95      0.01         0.01
  YS02006558YS02006561        1.82      2.09      1.82      2.63         1.82
  YS02001633YS02163601        6.08      6.08      6.09      0.01         0.01
  YS02001644YS02001647        6.05      6.05      6.08      0.01         0.01
  YS02001745YS02001748        0.01      0.01      5.99      0.01         0.01
  YS02001748YS02001751        6.00      6.00      6.02      0.01         0.01
  YS02001751YS02001754        6.02      6.02      6.05      0.01         0.01
  YS02001754YS02001757        6.05      6.05      6.12      0.01         0.01
  YS02001882YS02001884        1.77      1.77      1.80      0.01         0.01
  YS02001884YS02001887        1.85      1.85      1.88      0.01         0.01
  YS02001890YS02001895        1.74      1.74      1.97      0.01         0.01
  YS02001895YS02001898        1.73      1.73      1.74      0.01         0.01
  YS02001898YS02001901        1.75      1.75      1.84      0.01         0.01
  YS02001901YS02001904        1.83      1.83      1.84      0.01         0.01
  YS02001904YS02001907        1.83      1.83      2.34      0.01         0.01
  YS02001887YS02001890        1.91      1.91      1.93      0.20         0.01
  YS02001652YS02001649        6.06      6.06      6.08      0.01         0.01
  YS02001655YS02001652        6.02      6.02      6.05      0.01         0.01
  YS02001658YS02001655        5.99      5.99      6.02      0.01         0.01
  YS02001661YS02001658        0.16      0.16      5.99      0.01         0.01
  YS02001664YS02001661        0.01      0.01      1.83      0.01         0.01
  YS02001793JiankangQianchi        3.29      3.29      5.41      0.01         0.01
  YS02001757CaochengTiaoxuchi        5.59      5.59      6.12      0.01         0.01
  
  
  ***************
  Pumping Summary
  ***************
  
  ---------------------------------------------------------------------------------------------------------
                                                  Min       Avg       Max     Total     Power    % Time Off
                        Percent   Number of      Flow      Flow      Flow    Volume     Usage    Pump Curve
  Pump                 Utilized   Start-Ups       LPS       LPS       LPS  10^6 ltr     Kw-hr    Low   High
  ---------------------------------------------------------------------------------------------------------
  CC-Pump-1               43.10           5      0.00    129.06    200.00     1.562      1.94    0.0    9.3
  CC-Pump-2               49.49           7      0.00    118.94    200.00     1.629      1.65    0.0    5.4
  JK-Pump-1               46.81           7      0.00    165.72    300.00     2.000     21.69    0.0    0.0
  JK-Pump-2               55.31           5      0.00    183.94    300.00     2.617     31.34    0.0    0.0
  XR-Pump-1               78.72           6      0.00     68.04     95.00     1.682     14.01    0.0    0.0
  XR-Pump-2               93.61           6      0.00     76.06     95.00     2.081     16.36    0.0    0.0
  XR-Pump-3               91.48           5      0.00     83.93     95.00     2.223     17.05    0.0    0.0
  XR-Pump-4               63.82           7      0.00     58.69     95.00     1.054      7.50    0.0    0.0
  

  Analysis begun on:  Wed Dec 22 09:48:12 2021
  Analysis ended on:  Wed Dec 22 09:48:15 2021
  Total elapsed time: 00:00:03