
  EPA STORM WATER MANAGEMENT MODEL - VERSION 5.1 (Build 5.3.0.dev0)
  --------------------------------------------------------------

  WARNING 04: minimum elevation drop used for Conduit WS02004404WS02004405
  WARNING 03: negative offset ignored for Link YS02001904YS02001907
  
  *********************************************************
  NOTE: The summary statistics displayed in this report are
  based on results found at every computational time step,  
  not just on results from each reporting time step.
  *********************************************************
  
  ****************
  Analysis Options
  ****************
  Flow Units ............... LPS
  Process Models:
    Rainfall/Runoff ........ YES
    RDII ................... NO
    Snowmelt ............... NO
    Groundwater ............ NO
    Flow Routing ........... YES
    Ponding Allowed ........ NO
    Water Quality .......... NO
  Infiltration Method ...... HORTON
  Flow Routing Method ...... DYNWAVE
  Surcharge Method ......... EXTRAN
  Starting Date ............ 08/28/2015 08:00:00
  Ending Date .............. 08/28/2015 15:50:00
  Antecedent Dry Days ...... 8.0
  Report Time Step ......... 00:01:00
  Wet Time Step ............ 00:01:00
  Dry Time Step ............ 00:01:00
  Routing Time Step ........ 5.00 sec
  Variable Time Step ....... YES
  Maximum Trials ........... 8
  Number of Threads ........ 4
  Head Tolerance ........... 0.001500 m
  
  
  **************************        Volume         Depth
  Runoff Quantity Continuity     hectare-m            mm
  **************************     ---------       -------
  Total Precipitation ......         7.641        16.729
  Evaporation Loss .........         0.000         0.000
  Infiltration Loss ........         1.880         4.117
  Surface Runoff ...........         4.668        10.221
  Final Storage ............         1.093         2.393
  Continuity Error (%) .....        -0.013
  
  
  **************************        Volume        Volume
  Flow Routing Continuity        hectare-m      10^6 ltr
  **************************     ---------     ---------
  Dry Weather Inflow .......         0.616         6.165
  Wet Weather Inflow .......         4.667        46.671
  Groundwater Inflow .......         0.000         0.000
  RDII Inflow ..............         0.000         0.000
  External Inflow ..........         0.102         1.024
  External Outflow .........         1.879        18.786
  Flooding Loss ............         3.029        30.286
  Evaporation Loss .........         0.000         0.000
  Exfiltration Loss ........         0.000         0.000
  Initial Stored Volume ....         0.076         0.761
  Final Stored Volume ......         0.636         6.357
  Continuity Error (%) .....        -1.483
  
  
  *************************
  Highest Continuity Errors
  *************************
  Node HS02004842 (12.71%)
  Node YS02001884 (9.37%)
  Node JK-storage (-6.81%)
  Node HS02004817 (2.32%)
  Node YSB1171 (2.18%)
  
  
  ***************************
  Time-Step Critical Elements
  ***************************
  Link 3 (50.52%)
  Link WS02006252WS02006251 (32.42%)
  Link WS02006280WS02006229 (7.57%)
  Link WS02006238WS02006235 (2.34%)
  
  
  ********************************
  Highest Flow Instability Indexes
  ********************************
  Link WS02006113WS02006111 (48)
  Link YS02163301YS02001633 (35)
  Link YS02001619YS02001622 (34)
  Link YS02163601YS02164001 (33)
  Link YS02001629YS02163301 (33)
  
  
  *************************
  Routing Time Step Summary
  *************************
  Minimum Time Step           :     0.08 sec
  Average Time Step           :     0.95 sec
  Maximum Time Step           :     5.00 sec
  Percent in Steady State     :    -0.00
  Average Iterations per Step :     4.09
  Percent Not Converging      :    15.11
  
  
  ***************************
  Subcatchment Runoff Summary
  ***************************
  
  ------------------------------------------------------------------------------------------------------------------------------
                            Total      Total      Total      Total     Imperv       Perv      Total       Total     Peak  Runoff
                           Precip      Runon       Evap      Infil     Runoff     Runoff     Runoff      Runoff   Runoff   Coeff
  Subcatchment                 mm         mm         mm         mm         mm         mm         mm    10^6 ltr      LPS
  ------------------------------------------------------------------------------------------------------------------------------
  sub0                      16.73       0.00       0.00       0.97      14.29       0.20      14.50        0.01     3.66   0.867
  sub1                      16.73       0.00       0.00       1.58      13.63       0.26      13.89        0.09    24.51   0.830
  sub2                      16.73       0.00       0.00       5.80       9.63       0.39      10.02        0.09    22.91   0.599
  sub3                      16.73       0.00       0.00       5.88       9.59       0.31       9.90        0.22    50.49   0.592
  sub4                      16.73       0.00       0.00       1.65      13.47       0.19      13.66        0.28    60.01   0.817
  sub5                      16.73       0.00       0.00       0.99      14.24       0.18      14.42        0.16    43.61   0.862
  sub7                      16.73       0.00       0.00       1.26      13.97       0.24      14.21        0.05    13.82   0.849
  sub8                      16.73       0.00       0.00       1.27      13.96       0.23      14.19        0.09    25.44   0.848
  sub9                      16.73       0.00       0.00       1.27      13.96       0.23      14.19        0.07    19.02   0.848
  sub10                     16.73       0.00       0.00       1.13      14.10       0.21      14.30        0.16    42.73   0.855
  sub11                     16.73       0.00       0.00       1.12      14.11       0.21      14.33        0.17    47.25   0.857
  sub12                     16.73       0.00       0.00       1.83      13.37       0.35      13.71        0.12    35.87   0.820
  sub14                     16.73       0.00       0.00       1.27      13.95       0.23      14.19        0.14    37.43   0.848
  sub15                     16.73       0.00       0.00       4.53      10.73       0.49      11.22        0.19    51.47   0.671
  sub16                     16.73       0.00       0.00       4.88      10.29       0.64      10.93        0.11    32.57   0.653
  sub17                     16.73       0.00       0.00       4.74      10.44       0.61      11.05        0.09    26.81   0.661
  sub22                     16.73       0.00       0.00       6.60       8.75       0.59       9.34        0.59   160.16   0.558
  sub23                     16.73       0.00       0.00       5.59       9.67       0.60      10.27        0.49   134.74   0.614
  sub60                     16.73       0.00       0.00       1.94      11.65       0.06      11.71        3.55   386.89   0.700
  sub61                     16.73       0.00       0.00       2.75      11.65       0.09      11.73        3.62   476.87   0.701
  sub62                     16.73       0.00       0.00       1.26      12.72       0.07      12.79        3.93   491.27   0.765
  sub63                     16.73       0.00       0.00       4.75      10.14       0.10      10.23        3.10   437.54   0.612
  sub64                     16.73       0.00       0.00       2.45      11.19       0.06      11.26        3.42   367.58   0.673
  sub65                     16.73       0.00       0.00       2.11      11.40       0.06      11.46        3.52   372.98   0.685
  sub66                     16.73       0.00       0.00       4.79       9.55       0.06       9.61        2.95   336.52   0.575
  sub67                     16.73       0.00       0.00       1.24      13.25       0.09      13.35        4.12   605.48   0.798
  sub68                     16.73       0.00       0.00       2.25      12.20       0.10      12.30        3.78   521.64   0.735
  sub69                     16.73       0.00       0.00       2.37      12.50       0.14      12.64        2.95   482.20   0.755
  sub70                     16.73      12.90       0.00       8.98      17.16       1.09      18.25        4.18   460.88   0.616
  sub71                     16.73       0.00       0.00       1.27      12.46       0.07      12.53        2.96   345.19   0.749
  sub72                     16.73       0.00       0.00       1.14      10.39       0.03      10.43        2.12   185.81   0.623
  sub73                     16.73      17.77       0.00       9.78      19.72       1.38      21.10        4.96   482.28   0.612
  sub74                     16.73       0.00       0.00      12.48       3.71       0.07       3.78        1.51   261.10   0.226
  
  
  ******************
  Node Depth Summary
  ******************
  
  ---------------------------------------------------------------------------------
                                 Average  Maximum  Maximum  Time of Max    Reported
                                   Depth    Depth      HGL   Occurrence   Max Depth
  Node                 Type       Meters   Meters   Meters  days hr:min      Meters
  ---------------------------------------------------------------------------------
  WS02001211           JUNCTION     0.65     0.77     5.60     0  07:49        0.77
  WS02001212           JUNCTION     0.38     0.49     5.55     0  02:05        0.49
  WS02001213           JUNCTION     0.62     0.76     5.52     0  02:05        0.76
  WS02003069           JUNCTION     0.44     0.63     5.21     0  02:04        0.63
  WS02003072           JUNCTION     0.50     0.68     5.05     0  02:05        0.68
  WS02003073           JUNCTION     0.30     0.42     4.49     0  02:05        0.42
  WS02003060           JUNCTION     0.39     0.55     5.49     0  02:04        0.55
  WS02003066           JUNCTION     0.23     0.35     5.90     0  02:01        0.35
  WS02003059           JUNCTION     0.68     0.82     5.51     0  02:05        0.82
  WS02003067           JUNCTION     0.57     0.78     6.10     0  02:01        0.78
  WS02004401           JUNCTION     0.67     1.07     7.07     0  01:59        1.07
  WS02004402           JUNCTION     0.70     1.08     7.04     0  01:59        1.08
  WS02004403           JUNCTION     0.72     1.07     7.00     0  01:59        1.07
  WS02004404           JUNCTION     0.80     1.13     6.98     0  01:57        1.13
  WS02004406           JUNCTION     0.80     1.08     6.91     0  01:59        1.08
  WS02004409           JUNCTION     0.49     0.82     6.59     0  02:00        0.82
  WS02004410           JUNCTION     0.51     0.83     6.55     0  02:00        0.83
  WS02004411           JUNCTION     0.52     0.82     6.50     0  02:01        0.82
  WS02004412           JUNCTION     0.54     0.81     6.45     0  02:01        0.81
  WS02004413           JUNCTION     0.69     0.96     6.43     0  02:01        0.96
  WS02004405           JUNCTION     0.79     1.11     6.96     0  01:57        1.11
  WS02006109           JUNCTION     0.76     1.20     7.82     0  01:58        1.19
  WS02006110           JUNCTION     0.75     1.07     7.65     0  01:58        1.06
  WS02006111           JUNCTION     0.23     0.53     7.23     0  01:59        0.53
  WS02006112           JUNCTION     0.85     1.33     7.22     0  01:58        1.32
  WS02006113           JUNCTION     0.34     0.56     7.45     0  01:58        0.56
  WS02006115           JUNCTION     0.57     1.01     7.15     0  01:58        1.01
  WS02006116           JUNCTION     0.65     1.07     7.11     0  01:59        1.07
  WS02006230           JUNCTION     0.72     1.28     8.03     0  01:57        1.28
  WS02006231           JUNCTION     0.47     0.92     8.04     0  01:58        0.91
  WS02006232           JUNCTION     0.60     1.01     8.05     0  01:57        0.99
  WS02006234           JUNCTION     0.51     0.88     8.04     0  01:57        0.88
  WS02006235           JUNCTION     0.54     0.89     8.05     0  01:58        0.88
  WS02006238           JUNCTION     0.56     0.91     8.05     0  01:59        0.90
  WS02006240           JUNCTION     0.46     0.77     8.06     0  01:59        0.77
  WS02006242           JUNCTION     0.51     0.80     8.07     0  01:59        0.80
  WS02006243           JUNCTION     0.39     0.67     8.09     0  05:10        0.67
  WS02006245           JUNCTION     0.37     0.64     8.12     0  05:10        0.64
  WS02006247           JUNCTION     0.39     0.65     8.15     0  05:10        0.65
  WS02006248           JUNCTION     0.33     0.58     8.17     0  05:10        0.58
  WS02006249           JUNCTION     0.37     0.60     8.20     0  05:10        0.60
  WS02006239           JUNCTION     0.52     0.84     8.05     0  01:58        0.84
  WS02006251           JUNCTION     0.35     0.62     8.29     0  05:10        0.62
  WS02006252           JUNCTION     0.30     0.59     8.83     0  04:12        0.59
  WS02006253           JUNCTION     0.38     0.65     8.29     0  05:10        0.65
  WS02006256           JUNCTION     1.00     1.21     8.14     0  05:10        1.21
  WS02004138           JUNCTION     0.15     0.19     7.44     0  07:41        0.19
  WS02004407           JUNCTION     0.22     0.36     6.67     0  01:59        0.36
  WS02006228           JUNCTION     0.75     1.30     7.95     0  01:58        1.29
  WS02006229           JUNCTION     0.73     1.33     8.02     0  01:58        1.33
  WS02006280           JUNCTION     0.07     0.25     8.52     0  01:55        0.25
  WS02006284           JUNCTION     0.37     0.64     9.04     0  01:55        0.64
  WS02006287           JUNCTION     0.10     0.38     9.33     0  01:54        0.38
  WSF200               JUNCTION     0.22     0.39     5.62     0  02:02        0.39
  HS02004901           JUNCTION     0.13     0.36    10.18     0  01:52        0.36
  HS02004881           JUNCTION     0.01     0.05     9.08     0  01:54        0.05
  HS02004876           JUNCTION     0.04     0.16     9.19     0  01:55        0.16
  HS02004870           JUNCTION     0.02     0.09     9.38     0  01:55        0.09
  HS02004862           JUNCTION     0.02     0.11     9.49     0  01:55        0.11
  HS02004856           JUNCTION     0.08     0.15     9.58     0  01:55        0.15
  HS02004852           JUNCTION     0.01     0.07     9.59     0  01:55        0.07
  HS02004848           JUNCTION     0.01     0.07     9.67     0  01:55        0.07
  HS02004842           JUNCTION     0.34     0.40     9.67     0  01:55        0.40
  HS02004837           JUNCTION     0.03     0.09     9.67     0  01:55        0.09
  HS02004830           JUNCTION     0.04     0.10     9.57     0  01:56        0.10
  HS02004824           JUNCTION     0.03     0.12     9.53     0  01:55        0.12
  HS02004817           JUNCTION     0.45     0.69     9.53     0  01:55        0.69
  HS02004807           JUNCTION     0.13     0.36     9.53     0  01:55        0.36
  HS02004802           JUNCTION     0.17     0.39     9.52     0  01:55        0.39
  HS02004799           JUNCTION     0.12     0.45     9.66     0  01:53        0.45
  HS02004792           JUNCTION     0.03     0.20     9.73     0  01:52        0.20
  HS02004788           JUNCTION     0.03     0.15    10.05     0  01:53        0.15
  HS02004785           JUNCTION     0.05     0.23    10.14     0  01:52        0.23
  HS02004777           JUNCTION     0.15     0.37    10.17     0  01:52        0.37
  HS02004770           JUNCTION     0.12     0.35    10.18     0  01:52        0.35
  HS02004480           JUNCTION     0.08     0.37     9.61     0  01:53        0.37
  HS02004479           JUNCTION     0.12     0.41     9.61     0  01:53        0.41
  HS02004478           JUNCTION     0.07     0.27     9.50     0  01:54        0.27
  YS02001745           JUNCTION     0.79     0.96     8.47     0  02:47        0.96
  YS02001748           JUNCTION     1.20     1.39     8.47     0  02:47        1.39
  YS02001751           JUNCTION     1.39     1.58     8.46     0  02:47        1.58
  YS02001754           JUNCTION     1.64     1.85     8.45     0  02:46        1.85
  YS02001762           JUNCTION     1.85     2.04     8.44     0  02:43        2.04
  YS02001765           JUNCTION     1.80     1.99     8.44     0  02:43        1.99
  YS02001767           JUNCTION     1.76     1.95     8.43     0  02:18        1.94
  YS02001770           JUNCTION     1.76     1.93     8.42     0  02:43        1.93
  YS02001774           JUNCTION     1.83     1.98     8.40     0  02:34        1.98
  YS02001779           JUNCTION     1.57     1.68     8.37     0  01:47        1.68
  YS02001882           JUNCTION     0.61     1.68     8.39     0  01:55        1.63
  YS02001884           JUNCTION     0.71     1.77     8.38     0  01:55        1.72
  YS02001759           JUNCTION     1.88     2.08     8.45     0  02:46        2.08
  YS02001887           JUNCTION     0.79     1.83     8.36     0  01:55        1.80
  YS02001890           JUNCTION     0.81     1.81     8.32     0  01:55        1.81
  YS02001898           JUNCTION     0.58     1.59     8.32     0  01:55        1.56
  YS02001901           JUNCTION     0.70     1.70     8.31     0  01:55        1.67
  YS02001904           JUNCTION     0.68     1.65     8.28     0  01:55        1.63
  YS02001907           JUNCTION     1.01     1.96     8.25     0  01:55        1.96
  YS02001910           JUNCTION     0.80     1.83     8.34     0  01:56        1.79
  YS02001915           JUNCTION     0.60     1.69     8.40     0  01:56        1.61
  YS02001918           JUNCTION     0.34     1.45     8.51     0  01:56        1.31
  YS02001619           JUNCTION     1.35     1.61     8.54     0  01:47        1.48
  YS02001629           JUNCTION     1.71     1.85     8.40     0  01:47        1.85
  YS02001641           JUNCTION     1.81     1.94     8.37     0  02:05        1.93
  YS02001644           JUNCTION     1.81     1.92     8.35     0  01:51        1.92
  YS02001652           JUNCTION     1.66     2.16     8.76     0  02:18        1.90
  YS02001655           JUNCTION     1.41     2.20     9.05     0  02:18        1.72
  YS02001920           JUNCTION     0.45     1.56     8.57     0  01:56        1.40
  YS02001923           JUNCTION     0.28     1.35     8.61     0  01:56        1.17
  YS02001926           JUNCTION     0.33     1.37     8.82     0  01:56        1.01
  YS02001929           JUNCTION     0.19     0.90     8.59     0  01:56        0.77
  YS02001658           JUNCTION     1.14     2.10     9.25     0  02:14        1.52
  YS02001661           JUNCTION     0.90     2.40     9.80     0  02:18        1.38
  YS02001664           JUNCTION     0.40     0.56     8.49     0  04:27        0.56
  YS02001622           JUNCTION     1.37     1.62     8.52     0  01:48        1.50
  YS02001633           JUNCTION     1.80     1.95     8.40     0  02:11        1.94
  YS02001649           JUNCTION     1.85     2.05     8.44     0  02:04        2.05
  YS02001757           JUNCTION     1.98     2.19     8.45     0  02:46        2.19
  YS02001895           JUNCTION     0.57     1.58     8.33     0  01:55        1.56
  YS02001625           JUNCTION     1.66     1.78     8.38     0  01:46        1.78
  YS02163301           JUNCTION     1.74     1.92     8.43     0  01:47        1.88
  YS02163601           JUNCTION     1.85     1.99     8.39     0  01:51        1.98
  YS02164001           JUNCTION     1.79     1.92     8.38     0  01:54        1.91
  YS02001647           JUNCTION     1.64     1.81     8.42     0  02:04        1.79
  YSB1154              JUNCTION     0.26     0.56     9.62     0  01:53        0.56
  YSB6556              JUNCTION     0.15     0.44     9.61     0  01:53        0.44
  YSB1174              JUNCTION     0.21     0.50     9.61     0  01:53        0.50
  YSB1171              JUNCTION     0.42     0.71     9.61     0  01:53        0.71
  YS02006553           JUNCTION     1.01     1.98     8.26     0  01:55        1.97
  YS02006561           JUNCTION     0.36     1.16     7.82     0  01:55        1.08
  YS02006556           JUNCTION     0.98     1.95     8.27     0  01:55        1.92
  YS02006558           JUNCTION     1.02     1.99     8.26     0  01:55        1.97
  YS02001783           JUNCTION     0.61     1.64     7.78     0  01:47        1.47
  YS02001784           JUNCTION     0.62     1.54     7.60     0  01:47        1.42
  YS02001786           JUNCTION     0.56     1.57     7.60     0  01:47        1.26
  YS02001788           JUNCTION     0.50     1.55     7.53     0  01:47        1.13
  YS02001790           JUNCTION     0.62     1.76     7.40     0  01:45        1.29
  YS02001791           JUNCTION     0.60     2.21     7.68     0  01:45        1.27
  YS02001793           JUNCTION     0.84     2.15     6.98     0  01:45        1.80
  WS02004139           JUNCTION     0.59     0.71     5.62     0  07:49        0.71
  WSC                  OUTFALL      0.30     0.42     1.09     0  02:06        0.42
  3                    OUTFALL      0.10     0.20     6.20     0  05:10        0.20
  4                    OUTFALL      0.02     0.10     7.10     0  05:10        0.10
  5                    OUTFALL      0.00     0.00     5.00     0  00:00        0.00
  JK-storage           STORAGE      3.14     5.80     6.60     0  01:46        5.80
  CC-storage           STORAGE      1.22     1.45     8.45     0  02:44        1.45
  XR-storage           STORAGE      7.20     7.72     5.72     0  02:13        7.72
  
  
  *******************
  Node Inflow Summary
  *******************
  
  -------------------------------------------------------------------------------------------------
                                  Maximum  Maximum                  Lateral       Total        Flow
                                  Lateral    Total  Time of Max      Inflow      Inflow     Balance
                                   Inflow   Inflow   Occurrence      Volume      Volume       Error
  Node                 Type           LPS      LPS  days hr:min    10^6 ltr    10^6 ltr     Percent
  -------------------------------------------------------------------------------------------------
  WS02001211           JUNCTION      7.35   387.76     0  07:50       0.207        7.21       0.568
  WS02001212           JUNCTION      0.00   387.88     0  07:50           0        7.16       0.352
  WS02001213           JUNCTION      0.00   388.25     0  07:50           0        7.14       0.343
  WS02003069           JUNCTION      0.32  1066.91     0  02:04     0.00902        15.4       0.193
  WS02003072           JUNCTION      0.00  1066.90     0  02:05           0        15.4       0.238
  WS02003073           JUNCTION      1.82  1068.74     0  02:05      0.0514        15.4       0.269
  WS02003060           JUNCTION     16.53  1066.57     0  02:03       0.466        15.4       0.180
  WS02003066           JUNCTION      0.00   764.01     0  02:01           0        7.86       0.042
  WS02003059           JUNCTION      0.00   389.12     0  07:50           0        7.12       0.555
  WS02003067           JUNCTION      0.00   763.95     0  02:01           0        7.87       0.091
  WS02004401           JUNCTION      0.00   764.85     0  01:59           0        8.04       0.187
  WS02004402           JUNCTION      0.00   764.86     0  01:59           0        8.02       0.184
  WS02004403           JUNCTION      0.00   764.88     0  01:59           0        8.01       0.173
  WS02004404           JUNCTION      0.16   765.06     0  01:59     0.00457           8       0.135
  WS02004406           JUNCTION      0.00   765.11     0  01:59           0        7.97       0.333
  WS02004409           JUNCTION      0.00   765.06     0  01:59           0        7.94       0.124
  WS02004410           JUNCTION      0.00   764.43     0  02:00           0        7.93       0.153
  WS02004411           JUNCTION      0.00   764.09     0  02:00           0        7.92       0.165
  WS02004412           JUNCTION      0.00   763.95     0  02:00           0        7.91       0.189
  WS02004413           JUNCTION      0.00   763.93     0  02:01           0        7.89       0.300
  WS02004405           JUNCTION      0.04   765.10     0  01:59     0.00107        7.99       0.209
  WS02006109           JUNCTION      1.23   742.33     0  01:58      0.0347        8.02       0.151
  WS02006110           JUNCTION      0.00   742.20     0  01:58           0        8.01       0.154
  WS02006111           JUNCTION      0.00   746.56     0  01:52           0        7.99       0.019
  WS02006112           JUNCTION     26.81   764.87     0  01:59      0.0948        8.08       0.241
  WS02006113           JUNCTION      0.00   742.25     0  01:58           0        7.99       0.048
  WS02006115           JUNCTION      0.00   764.85     0  01:59           0        8.06       0.172
  WS02006116           JUNCTION      0.00   764.80     0  01:59           0        8.05       0.125
  WS02006230           JUNCTION     10.28   402.73     0  05:10        0.29        5.34       0.129
  WS02006231           JUNCTION      0.00   392.65     0  05:10           0        5.04       0.009
  WS02006232           JUNCTION      0.00   392.64     0  05:10           0        5.03       0.092
  WS02006234           JUNCTION      0.00   392.75     0  05:10           0        5.03       0.034
  WS02006235           JUNCTION      0.00   393.98     0  05:03           0        5.07       0.038
  WS02006238           JUNCTION      0.00   311.65     0  06:30           0        3.39       0.020
  WS02006240           JUNCTION      0.00   312.68     0  05:01           0        3.39       0.035
  WS02006242           JUNCTION      0.00   322.64     0  05:01           0        3.39       0.049
  WS02006243           JUNCTION      0.00   334.40     0  03:21           0        3.37      -0.573
  WS02006245           JUNCTION      0.00   343.60     0  03:20           0        3.38       0.213
  WS02006247           JUNCTION      0.00   351.26     0  03:20           0        3.38       0.007
  WS02006248           JUNCTION      0.00   357.49     0  03:20           0        3.38      -0.103
  WS02006249           JUNCTION      0.00   403.23     0  04:17           0        3.61       0.142
  WS02006239           JUNCTION      0.00   311.47     0  06:30           0        3.39      -0.085
  WS02006251           JUNCTION      0.08   405.51     0  03:20     0.00217        3.64      -0.005
  WS02006252           JUNCTION      0.00   400.00     0  04:10           0        3.07       0.002
  WS02006253           JUNCTION      3.66   142.88     0  01:54      0.0117       0.566       0.014
  WS02006256           JUNCTION      0.00   599.96     0  04:00           0        4.91       0.022
  WS02004138           JUNCTION      0.00   380.00     0  07:40           0        7.04       0.086
  WS02004407           JUNCTION      0.00   765.12     0  01:59           0        7.95       0.051
  WS02006228           JUNCTION      0.00   741.01     0  01:58           0        7.99       0.104
  WS02006229           JUNCTION      0.00   741.12     0  01:57           0        8.02       0.107
  WS02006280           JUNCTION      0.00   656.08     0  01:55           0         2.7       0.003
  WS02006284           JUNCTION      0.10   655.99     0  01:55      0.0027         2.7       0.038
  WS02006287           JUNCTION      0.00   655.84     0  01:54           0         2.7       0.027
  WSF200               JUNCTION      0.00   764.01     0  02:01           0        7.86       0.036
  HS02004901           JUNCTION     32.57    32.57     0  01:50       0.114       0.115       1.560
  HS02004881           JUNCTION     13.82   139.59     0  01:54      0.0479       0.529       0.020
  HS02004876           JUNCTION     24.51   126.37     0  01:54      0.0923       0.482       0.114
  HS02004870           JUNCTION     25.44   102.13     0  01:54      0.0907        0.39       0.028
  HS02004862           JUNCTION     23.11    77.53     0  01:55       0.099       0.299       0.058
  HS02004856           JUNCTION     19.02    54.51     0  01:55      0.0682       0.202       0.720
  HS02004852           JUNCTION      0.00    36.10     0  01:55           0       0.134       0.042
  HS02004848           JUNCTION     50.49    50.49     0  01:57       0.223       0.223       0.021
  HS02004842           JUNCTION      0.00    15.55     0  02:06           0       0.102      14.563
  HS02004837           JUNCTION     49.08    62.50     0  01:55       0.337       0.426       0.190
  HS02004830           JUNCTION      0.15    62.61     0  01:55     0.00423       0.416       0.297
  HS02004824           JUNCTION     60.06   122.21     0  01:58       0.286       0.702       0.077
  HS02004817           JUNCTION      0.60   124.03     0  01:59      0.0169       0.718       2.377
  HS02004807           JUNCTION     47.25   168.29     0  01:57       0.166       0.868       0.499
  HS02004802           JUNCTION      0.00   169.25     0  01:58           0       0.865       0.459
  HS02004799           JUNCTION     37.43   414.55     0  01:52       0.135        1.57       0.166
  HS02004792           JUNCTION    160.44   377.32     0  01:52       0.598        1.44       0.028
  HS02004788           JUNCTION     53.14   218.55     0  01:53        0.24       0.839       0.046
  HS02004785           JUNCTION      0.15   165.60     0  01:52     0.00423       0.601       0.083
  HS02004777           JUNCTION      0.03   165.80     0  01:51    0.000846       0.601       0.872
  HS02004770           JUNCTION    134.74   166.64     0  01:51        0.49       0.602       0.516
  HS02004480           JUNCTION      0.00   492.24     0  01:53           0        1.85       0.064
  HS02004479           JUNCTION      0.00    78.01     0  01:53           0       0.292       0.252
  HS02004478           JUNCTION      0.00   655.79     0  01:54           0         2.7       0.013
  YS02001745           JUNCTION    386.89   386.89     0  02:16        3.55        3.55       0.327
  YS02001748           JUNCTION      0.04   397.04     0  02:16     0.00127        3.54       0.653
  YS02001751           JUNCTION      0.01   396.27     0  02:16     0.00031        3.52       0.681
  YS02001754           JUNCTION      0.26   396.62     0  02:16     0.00733         3.5       0.706
  YS02001762           JUNCTION      0.00   431.33     0  02:03           0         2.5       0.845
  YS02001765           JUNCTION      0.00   431.80     0  02:03           0         2.5       0.977
  YS02001767           JUNCTION      0.54   431.68     0  02:03      0.0151        2.53       1.426
  YS02001770           JUNCTION    491.42   722.90     0  02:48        3.94        4.92       0.639
  YS02001774           JUNCTION      0.00   723.03     0  02:48           0        3.36       0.745
  YS02001779           JUNCTION      0.01   723.10     0  02:48    0.000141        3.33       0.466
  YS02001882           JUNCTION      0.00    35.74     0  01:52           0      0.0277       7.406
  YS02001884           JUNCTION      0.00    62.55     0  01:49           0      0.0638      10.333
  YS02001759           JUNCTION    476.91   859.14     0  02:03        3.62        5.11       0.447
  YS02001887           JUNCTION    605.93   606.73     0  02:15        4.13        4.16       0.202
  YS02001890           JUNCTION      0.00   606.80     0  02:15           0        4.11       0.217
  YS02001898           JUNCTION      0.00   517.52     0  02:29           0           4       0.075
  YS02001901           JUNCTION      0.00   517.61     0  02:24           0           4       0.158
  YS02001904           JUNCTION      0.00   517.60     0  02:27           0        3.99       0.143
  YS02001907           JUNCTION      0.00  1110.29     0  01:57           0        9.14       0.264
  YS02001910           JUNCTION      0.00   602.09     0  01:57           0        5.15       0.238
  YS02001915           JUNCTION    345.21   602.14     0  01:57        2.96        5.21       0.104
  YS02001918           JUNCTION      0.00   338.82     0  01:57           0        2.28       0.061
  YS02001619           JUNCTION    336.52   336.52     0  02:16        2.95        2.95       0.418
  YS02001629           JUNCTION      0.00   243.49     0  01:47           0        1.45       2.016
  YS02001641           JUNCTION      0.00   426.96     0  01:51           0        4.86       0.432
  YS02001644           JUNCTION    367.62  1543.83     0  02:48        3.42          13       0.203
  YS02001652           JUNCTION      0.00   477.75     0  02:14           0        3.05       0.753
  YS02001655           JUNCTION      0.15   477.31     0  02:14     0.00434        3.07       0.816
  YS02001920           JUNCTION      2.87   338.38     0  01:57      0.0809        2.26       0.127
  YS02001923           JUNCTION      0.04   290.25     0  01:57     0.00106        2.16       0.047
  YS02001926           JUNCTION      0.05   254.53     0  01:55     0.00147        2.14       0.149
  YS02001929           JUNCTION    185.81   185.81     0  03:01        2.12        2.13       0.029
  YS02001658           JUNCTION      0.00   512.02     0  02:09           0        3.09       0.760
  YS02001661           JUNCTION      0.00   768.05     0  02:04           0        3.75      -0.006
  YS02001664           JUNCTION    437.54   437.54     0  02:16         3.1        3.75       0.186
  YS02001622           JUNCTION      0.00   337.22     0  02:16           0        2.94       1.090
  YS02001633           JUNCTION    373.18   427.59     0  01:51        3.53        4.93       0.652
  YS02001649           JUNCTION      0.00  1006.12     0  01:58           0        6.95       0.530
  YS02001757           JUNCTION      0.00  2127.70     0  02:02           0        9.82       0.944
  YS02001895           JUNCTION      0.00   517.65     0  02:27           0           4       0.121
  YS02001625           JUNCTION      0.00   336.71     0  02:16           0        2.91       1.360
  YS02163301           JUNCTION      0.00   233.16     0  01:48           0        1.45       1.676
  YS02163601           JUNCTION      0.11   427.56     0  01:51      0.0031        4.87       0.617
  YS02164001           JUNCTION      0.00   427.31     0  01:51           0        4.85       0.412
  YS02001647           JUNCTION      0.00   821.39     0  02:48           0        6.05       0.471
  YSB1154              JUNCTION     43.61    43.61     0  01:53       0.163       0.164       0.888
  YSB6556              JUNCTION      0.00    43.64     0  01:53           0       0.165       0.764
  YSB1174              JUNCTION     35.87    35.87     0  01:50        0.12        0.12       1.078
  YSB1171              JUNCTION      0.00    78.04     0  01:53           0       0.291       2.227
  YS02006553           JUNCTION      0.00   682.61     0  03:22           0         7.1       0.220
  YS02006561           JUNCTION      0.00   968.41     0  02:11           0        10.8       0.006
  YS02006556           JUNCTION      0.00   682.62     0  03:22           0        7.11       0.154
  YS02006558           JUNCTION    522.52   969.46     0  02:16        3.81        10.9       0.047
  YS02001783           JUNCTION      0.00   968.56     0  02:12           0        10.8       0.020
  YS02001784           JUNCTION      1.06   969.62     0  02:11      0.0299        10.9       0.037
  YS02001786           JUNCTION      0.06   969.41     0  02:15     0.00159        10.9       0.031
  YS02001788           JUNCTION      0.07   969.51     0  02:15       0.002        10.9       0.019
  YS02001790           JUNCTION      0.15   969.76     0  02:11     0.00437        10.9       0.023
  YS02001791           JUNCTION      0.00   969.67     0  02:15           0        10.9       0.011
  YS02001793           JUNCTION      0.00   970.00     0  02:11           0        10.9       0.009
  WS02004139           JUNCTION      0.32   380.32     0  07:41     0.00905        7.04       0.625
  WSC                  OUTFALL       0.00  1068.76     0  02:06           0        15.3       0.000
  3                    OUTFALL       0.00   504.90     0  05:10           0        3.23       0.000
  4                    OUTFALL       0.00   102.43     0  05:10           0       0.232       0.000
  5                    OUTFALL       0.00     0.00     0  00:00           0           0       0.000 ltr
  JK-storage           STORAGE       0.00   970.10     0  02:10           0          11      -6.375
  CC-storage           STORAGE       0.00  2128.28     0  02:02           0        7.03       0.930
  XR-storage           STORAGE     844.69   844.69     0  03:01        12.1        12.7      -0.001
  
  
  **********************
  Node Surcharge Summary
  **********************
  
  Surcharging occurs when water rises above the top of the highest conduit.
  ---------------------------------------------------------------------
                                               Max. Height   Min. Depth
                                   Hours       Above Crown    Below Rim
  Node                 Type      Surcharged         Meters       Meters
  ---------------------------------------------------------------------
  WS02004401           JUNCTION        0.36          0.070        1.590
  WS02004402           JUNCTION        0.41          0.077        1.663
  WS02004403           JUNCTION        0.42          0.070        1.960
  WS02004404           JUNCTION        0.57          0.130        2.650
  WS02004406           JUNCTION        0.52          0.083        2.367
  WS02004405           JUNCTION        0.55          0.109        2.691
  WS02006109           JUNCTION        1.86          0.380        1.440
  WS02006110           JUNCTION        0.67          0.156        1.694
  WS02006112           JUNCTION        0.73          0.332        1.348
  WS02006115           JUNCTION        0.06          0.004        2.246
  WS02006116           JUNCTION        0.15          0.015        2.275
  WS02006230           JUNCTION        0.52          0.201        1.369
  WS02006231           JUNCTION        0.52          0.208        1.322
  WS02006232           JUNCTION        1.77          0.306        1.174
  WS02006234           JUNCTION        0.47          0.164        1.076
  WS02006235           JUNCTION        1.20          0.180        1.110
  WS02006238           JUNCTION        1.43          0.189        1.241
  WS02006240           JUNCTION        0.23          0.058        1.332
  WS02006242           JUNCTION        0.95          0.073        0.747
  WS02006239           JUNCTION        0.47          0.104        1.186
  WS02006252           JUNCTION        1.26          0.193        0.907
  WS02006228           JUNCTION        1.79          0.471        1.729
  YS02001748           JUNCTION        5.99          0.309        0.881
  YS02001751           JUNCTION        6.02          0.581        0.619
  YS02001754           JUNCTION        6.04          0.796        0.354
  YS02001762           JUNCTION        6.08          1.044        0.106
  YS02001765           JUNCTION        6.08          0.990        0.110
  YS02001767           JUNCTION        6.07          0.945        0.085
  YS02001770           JUNCTION        6.07          0.899        0.021
  YS02001774           JUNCTION        6.08          0.982        0.068
  YS02001779           JUNCTION        6.04          0.680        0.000
  YS02001882           JUNCTION        1.79          0.676        0.154
  YS02001884           JUNCTION        1.82          0.707        0.163
  YS02001759           JUNCTION        6.09          1.083        0.127
  YS02001887           JUNCTION        1.89          0.776        0.174
  YS02001890           JUNCTION        1.92          0.760        0.000
  YS02001898           JUNCTION        1.75          0.558        0.182
  YS02001901           JUNCTION        1.86          0.696        0.174
  YS02001904           JUNCTION        1.85          0.651        0.199
  YS02001907           JUNCTION        2.26          0.950        0.000
  YS02001910           JUNCTION        1.97          0.831        0.269
  YS02001915           JUNCTION        1.78          0.685        0.315
  YS02001918           JUNCTION        1.55          0.449        0.361
  YS02001619           JUNCTION        6.02          0.610        0.000
  YS02001629           JUNCTION        6.02          0.470        0.000
  YS02001641           JUNCTION        6.08          0.935        0.165
  YS02001644           JUNCTION        6.08          0.920        0.000
  YS02001652           JUNCTION        6.05          1.130        0.000
  YS02001655           JUNCTION        6.02          1.200        0.000
  YS02001920           JUNCTION        1.59          0.558        0.582
  YS02001923           JUNCTION        0.01          0.138        0.682
  YS02001926           JUNCTION        0.01          0.371        0.529
  YS02001658           JUNCTION        5.99          1.104        0.196
  YS02001661           JUNCTION        0.18          1.328        0.062
  YS02001622           JUNCTION        6.02          0.620        0.000
  YS02001633           JUNCTION        6.08          0.925        0.135
  YS02001649           JUNCTION        6.08          1.050        0.000
  YS02001757           JUNCTION        6.12          1.186        0.024
  YS02001895           JUNCTION        1.77          0.579        0.171
  YS02001625           JUNCTION        6.05          0.780        0.000
  YS02163301           JUNCTION        6.07          0.916        0.114
  YS02163601           JUNCTION        6.09          0.990        0.090
  YS02164001           JUNCTION        6.08          0.921        0.179
  YS02001647           JUNCTION        6.05          0.808        0.092
  YS02006553           JUNCTION        2.30          0.977        0.213
  YS02006561           JUNCTION        1.67          0.355        0.795
  YS02006556           JUNCTION        2.13          0.914        0.436
  YS02006558           JUNCTION        2.10          0.893        0.507
  YS02001783           JUNCTION        2.23          0.840        0.760
  YS02001784           JUNCTION        2.29          0.736        0.754
  YS02001786           JUNCTION        2.24          0.771        0.659
  YS02001788           JUNCTION        2.22          0.750        0.730
  YS02001790           JUNCTION        3.03          0.956        0.201
  YS02001791           JUNCTION        3.06          1.406        0.514
  YS02001793           JUNCTION        3.14          1.153        1.447
  
  
  *********************
  Node Flooding Summary
  *********************
  
  Flooding refers to all water that overflows a node, whether it ponds or not.
  --------------------------------------------------------------------------
                                                             Total   Maximum
                                 Maximum   Time of Max       Flood    Ponded
                        Hours       Rate    Occurrence      Volume     Depth
  Node                 Flooded       LPS   days hr:min    10^6 ltr    Meters
  --------------------------------------------------------------------------
  YS02001779              3.50    723.09      0  02:49       3.310     0.000
  YS02001890              0.59     90.30      0  02:15       0.101     0.000
  YS02001907              1.41    579.89      0  02:14       2.024     0.000
  YS02001619              0.01     67.95      0  01:48       0.000     0.000
  YS02001629              0.01    177.39      0  01:47       0.000     0.000
  YS02001644              5.59   1543.82      0  02:48      11.728     0.000
  YS02001652              0.01      5.67      0  02:18       0.000     0.000
  YS02001655              0.01     10.29      0  02:18       0.000     0.000
  YS02001622              0.01     65.32      0  01:48       0.000     0.000
  YS02001649              0.03     32.32      0  02:18       0.001     0.000
  YS02001625              1.99    326.96      0  02:16       1.441     0.000
  JK-storage              2.93    969.78      0  02:15       6.846     0.000
  XR-storage              5.03    559.69      0  03:01       4.835     0.000
  
  
  **********************
  Storage Volume Summary
  **********************
  
  --------------------------------------------------------------------------------------------------
                         Average     Avg  Evap Exfil       Maximum     Max    Time of Max    Maximum
                          Volume    Pcnt  Pcnt  Pcnt        Volume    Pcnt     Occurrence    Outflow
  Storage Unit           1000 m3    Full  Loss  Loss       1000 m3    Full    days hr:min        LPS
  --------------------------------------------------------------------------------------------------
  JK-storage               0.158      54     0     0         0.291     100       0  01:46     606.00
  CC-storage               3.396      22     0     0         4.035      26       0  02:44     400.00
  XR-storage               0.864      93     0     0         0.926     100       0  02:13     380.00
  
  
  ***********************
  Outfall Loading Summary
  ***********************
  
  -----------------------------------------------------------
                         Flow       Avg       Max       Total
                         Freq      Flow      Flow      Volume
  Outfall Node           Pcnt       LPS       LPS    10^6 ltr
  -----------------------------------------------------------
  WSC                  100.00    578.69   1068.76      15.324
  3                     80.94    216.29    504.90       3.230
  4                     24.66     51.22    102.43       0.232
  5                      0.00      0.00      0.00       0.000
  -----------------------------------------------------------
  System                51.40    846.20   1108.51      18.786
  
  
  ********************
  Link Flow Summary
  ********************
  
  -----------------------------------------------------------------------------
                                 Maximum  Time of Max   Maximum    Max/    Max/
                                  |Flow|   Occurrence   |Veloc|    Full    Full
  Link                 Type          LPS  days hr:min     m/sec    Flow   Depth
  -----------------------------------------------------------------------------
  WS02003066WSF200     CONDUIT    764.01     0  02:01      2.89    0.13    0.28
  WS02006287WS02006284 CONDUIT    655.89     0  01:55      2.36    0.30    0.38
  WS02006284WS02006280 CONDUIT    656.08     0  01:55      2.59    0.27    0.36
  WS02006280WS02006229 CONDUIT    656.09     0  01:55      4.21    0.14    0.25
  WS02006229WS02006228 CONDUIT    741.01     0  01:58      1.47    2.45    1.00
  WS02006256WS02006235 CONDUIT    139.57     0  03:56      1.97    1.48    1.00
  WS02006253WS02006251 CONDUIT    140.88     0  01:54      0.71    0.42    0.90
  WS02006252WS02006251 CONDUIT    400.34     0  05:00      3.19    1.47    1.00
  WS02006251WS02006249 CONDUIT    403.23     0  04:17      1.18    1.16    0.87
  WS02006249WS02006248 CONDUIT    357.49     0  03:20      1.16    1.96    0.83
  WS02006248WS02006247 CONDUIT    351.26     0  03:20      1.12    0.76    0.87
  WS02006247WS02006245 CONDUIT    343.60     0  03:20      1.08    2.72    0.91
  WS02006245WS02006243 CONDUIT    334.40     0  03:21      1.16    0.99    0.92
  WS02006243WS02006242 CONDUIT    322.64     0  05:01      1.03    0.69    0.98
  WS02006242WS02006240 CONDUIT    312.68     0  05:01      0.88    1.24    1.00
  WS02006240WS02006239 CONDUIT    311.47     0  06:30      0.87    0.98    1.00
  WS02006239WS02006238 CONDUIT    311.65     0  06:30      0.81    1.00    1.00
  WS02006238WS02006235 CONDUIT    311.67     0  06:30      0.81    0.70    1.00
  WS02006235WS02006234 CONDUIT    392.75     0  05:10      1.04    4.14    1.00
  WS02006234WS02006232 CONDUIT    392.64     0  05:10      1.02    0.79    1.00
  WS02006232WS02006231 CONDUIT    392.65     0  05:10      1.06    0.82    1.00
  WS02006231WS02006230 CONDUIT    392.45     0  05:10      1.35    5.95    1.00
  WS02006230WS02006229 CONDUIT    402.66     0  05:11      1.05    8.96    1.00
  WS02006228WS02006109 CONDUIT    741.10     0  01:58      1.47    3.24    1.00
  WS02006116WS02004401 CONDUIT    764.85     0  01:59      0.97    1.05    1.00
  WS02006115WS02006116 CONDUIT    764.80     0  01:59      0.98    0.98    1.00
  WS02006113WS02006111 CONDUIT    746.56     0  01:52      2.62    0.89    0.68
  WS02006112WS02006115 CONDUIT    764.85     0  01:59      0.97    0.45    1.00
  WS02006111WS02006112 CONDUIT    741.74     0  01:59      1.75    0.35    0.82
  WS02006110WS02006113 CONDUIT    742.25     0  01:58      1.63    0.68    0.85
  WS02006109WS02006110 CONDUIT    742.20     0  01:58      1.48    1.43    1.00
  WS02004411WS02004412 CONDUIT    763.95     0  02:00      1.11    1.09    0.82
  WS02004401WS02004402 CONDUIT    764.86     0  01:59      0.97    0.92    1.00
  WS02004413WS02003067 CONDUIT    763.95     0  02:01      1.35    0.33    0.68
  WS02004412WS02004413 CONDUIT    763.93     0  02:01      1.04    0.51    0.89
  WS02004410WS02004411 CONDUIT    764.09     0  02:00      1.10    1.04    0.82
  WS02004409WS02004410 CONDUIT    764.43     0  02:00      1.10    0.99    0.82
  WS02004407WS02004409 CONDUIT    765.06     0  01:59      1.64    0.27    0.59
  WS02004406WS02004407 CONDUIT    765.12     0  01:59      1.35    0.34    0.68
  WS02004405WS02004406 CONDUIT    765.11     0  01:59      0.97    1.51    1.00
  WS02004404WS02004405 CONDUIT    765.07     0  01:59      0.97    7.50    1.00
  WS02004403WS02004404 CONDUIT    764.90     0  01:59      0.97    0.55    1.00
  WS02004402WS02004403 CONDUIT    764.88     0  01:59      0.97    1.10    1.00
  WS02004139WS02001211 CONDUIT    380.41     0  07:50      0.81    0.48    0.57
  WS02004138WS02004139 CONDUIT    380.00     0  07:41      3.34    0.08    0.43
  WS02003067WS02003066 CONDUIT    764.01     0  02:01      1.47    0.24    0.47
  WS02001213WS02003059 CONDUIT    389.12     0  07:50      0.78    0.64    0.78
  WS02001212WS02001213 CONDUIT    388.25     0  07:50      1.25    0.60    0.46
  WS02001211WS02001212 CONDUIT    387.88     0  07:50      0.76    0.30    0.62
  WS02003072WS02003073 CONDUIT   1066.92     0  02:05      1.81    2.30    0.52
  WS02003069WS02003072 CONDUIT   1066.90     0  02:05      1.69    0.51    0.55
  WS02003060WS02003069 CONDUIT   1066.59     0  02:04      1.92    0.42    0.49
  WS02003059WS02003060 CONDUIT    390.38     0  07:50      0.85    0.25    0.69
  HS02004901HS02004770 CONDUIT     31.96     0  01:52      0.09    0.12    0.51
  HS02004876HS02004881 CONDUIT    126.38     0  01:55      1.20    1.34    0.15
  HS02004870HS02004876 CONDUIT    102.10     0  01:55      0.82    0.07    0.18
  HS02004842HS02004848 CONDUIT     15.55     0  02:06      0.07    0.01    0.33
  HS02004837HS02004842 CONDUIT     15.96     0  02:07      0.42    0.01    0.35
  HS02004830HS02004837 CONDUIT     62.46     0  01:55      0.66    0.06    0.14
  HS02004824HS02004830 CONDUIT     62.57     0  01:56      0.62    0.08    0.16
  HS02004817HS02004824 CONDUIT    123.43     0  01:59      0.31    0.06    0.58
  HS02004770HS02004777 CONDUIT    165.77     0  01:51      0.46    0.30    0.52
  HS02004799HS02004480 CONDUIT    414.31     0  01:53      1.02    0.52    0.58
  HS02004792HS02004799 CONDUIT    377.22     0  01:52      1.15    0.23    0.47
  HS02004788HS02004792 CONDUIT    218.45     0  01:53      1.24    0.14    0.25
  HS02004785HS02004788 CONDUIT    165.55     0  01:53      0.86    1.25    0.27
  HS02004777HS02004785 CONDUIT    165.45     0  01:52      0.54    0.20    0.44
  HS02004480HS02004478 CONDUIT    492.16     0  01:53      1.52    2.07    0.46
  HS02004479HS02004480 CONDUIT     78.31     0  01:54      0.27    0.08    0.55
  HS02004862HS02004870 CONDUIT     77.53     0  01:55      0.79    0.08    0.14
  HS02004848HS02004852 CONDUIT     36.10     0  01:55      0.52    0.04    0.10
  HS02004856HS02004862 CONDUIT     54.47     0  01:55      0.59    0.05    0.13
  HS02004852HS02004856 CONDUIT     36.15     0  01:56      0.33    0.04    0.16
  HS02004802HS02004478 CONDUIT    170.23     0  01:58      0.53    0.15    0.47
  HS02004478WS02006287 CONDUIT    655.84     0  01:54      2.08    0.18    0.35
  HS02004817HS02004807 CONDUIT    125.36     0  01:59      0.24    0.07    0.75
  HS02004807HS02004802 CONDUIT    169.25     0  01:58      0.47    0.32    0.53
  YS02001759YS02001757 CONDUIT    859.63     0  02:03      1.09    0.61    1.00
  YS02001762YS02001759 CONDUIT    431.27     0  02:03      0.55    0.50    1.00
  YS02001765YS02001762 CONDUIT    431.33     0  02:03      0.55    0.40    1.00
  YS02001770YS02001767 CONDUIT    431.14     0  02:03      0.55    1.71    1.00
  YS02001774YS02001770 CONDUIT    723.03     0  02:48      0.92    0.46    1.00
  YS02001779YS02001774 CONDUIT    723.09     0  02:48      0.92    0.36    1.00
  YS02001649YS02001757 CONDUIT   1007.18     0  01:58      1.28    0.61    1.00
  YS02001767YS02001765 CONDUIT    431.80     0  02:03      0.55    0.54    1.00
  YS02006561YS02001783 CONDUIT    968.56     0  02:12      2.05    0.50    1.00
  YS02001783YS02001784 CONDUIT    968.56     0  02:11      1.93    1.34    1.00
  YS02001784YS02001785 CONDUIT    969.35     0  02:15      1.93    2.26    1.00
  YS02001788YS02001790 CONDUIT    969.61     0  02:11      2.02    0.71    1.00
  YS02001790YS02001791 CONDUIT    969.67     0  02:15      2.33    1.06    1.00
  YS02001791YS02001793 CONDUIT    970.00     0  02:11      4.35    0.42    1.00
  YS02001910YS02001907 CONDUIT    602.47     0  01:57      0.77    0.34    1.00
  YS02001786YS02001788 CONDUIT    969.44     0  02:15      2.03    1.87    1.00
  YS02001915YS02001910 CONDUIT    602.09     0  01:57      0.77    0.30    1.00
  YS02001918YS02001915 CONDUIT    339.84     0  01:57      0.46    0.19    1.00
  YS02001923YS02001920 CONDUIT    335.51     0  01:57      0.78    0.15    1.00
  YS02001926YS02001923 CONDUIT    290.21     0  01:57      0.87    0.41    1.00
  YS02001929YS02001926 CONDUIT    212.07     0  01:56      0.93    0.10    0.95
  YS02001920YS02001918 CONDUIT    338.82     0  01:57      0.76    0.33    1.00
  YS02001629YS02163301 CONDUIT    233.16     0  01:48      0.30    0.29    1.00
  YS02001619YS02001622 CONDUIT    337.22     0  02:16      0.76    0.50    1.00
  YS02001622YS02001625 CONDUIT    336.71     0  02:16      0.43    0.18    1.00
  YS02001625YS02001629 CONDUIT    211.57     0  01:47      0.31    0.10    1.00
  YS02163301YS02001633 CONDUIT    232.80     0  01:48      0.30    0.22    1.00
  YS02163601YS02164001 CONDUIT    427.31     0  01:51      0.54    0.38    1.00
  YS02164001YS02001641 CONDUIT    426.96     0  01:51      0.54    0.58    1.00
  YS02001641YS02001644 CONDUIT    426.39     0  01:51      0.54    1.38    1.00
  YS02001647YS02001649 CONDUIT    821.39     0  02:48      1.05    0.43    1.00
  YS02006553YS02006556 CONDUIT    682.62     0  03:22      0.87    0.58    1.00
  YS02006556YS02006558 CONDUIT    682.67     0  03:22      0.87    0.54    1.00
  YSB6556YSB1171       CONDUIT     43.98     0  01:54      0.13    0.05    0.82
  YS02001907YS02006553 CONDUIT    682.61     0  03:22      0.76    0.80    1.00
  YS02006558YS02006561 CONDUIT    968.41     0  02:11      3.43    2.14    1.00
  YS02001633YS02163601 CONDUIT    427.45     0  01:51      0.54    0.45    1.00
  YS02001644YS02001647 CONDUIT    821.50     0  02:48      1.05    0.48    1.00
  YS02001745YS02001748 CONDUIT    396.99     0  02:16      1.73    0.15    0.98
  YS02001748YS02001751 CONDUIT    396.26     0  02:16      1.25    0.20    1.00
  YS02001751YS02001754 CONDUIT    396.36     0  02:16      1.03    0.19    1.00
  YS02001754YS02001757 CONDUIT    396.90     0  02:16      0.51    0.16    1.00
  YS02001882YS02001884 CONDUIT     35.74     0  01:52      0.12    0.04    1.00
  YS02001884YS02001887 CONDUIT     62.55     0  01:49      0.09    0.08    1.00
  YS02001890YS02001895 CONDUIT    517.65     0  02:27      0.66    0.24    1.00
  YS02001895YS02001898 CONDUIT    517.52     0  02:29      0.66    0.90    1.00
  YS02001898YS02001901 CONDUIT    517.61     0  02:24      0.66    0.33    1.00
  YS02001901YS02001904 CONDUIT    517.60     0  02:27      0.66    0.80    1.00
  YS02001904YS02001907 CONDUIT    517.73     0  02:25      0.66    0.18    1.00
  YS02001887YS02001890 CONDUIT    606.80     0  02:15      0.77    1.04    1.00
  YS02001652YS02001649 CONDUIT    477.80     0  02:14      0.61    0.24    1.00
  YS02001655YS02001652 CONDUIT    477.75     0  02:14      1.09    0.23    1.00
  YS02001658YS02001655 CONDUIT    477.16     0  02:14      1.45    0.20    1.00
  YS02001661YS02001658 CONDUIT    512.02     0  02:09      1.85    0.20    1.00
  YS02001664YS02001661 CONDUIT    768.05     0  02:04      1.75    0.24    0.77
  YSB1154YSB6556       CONDUIT     43.64     0  01:53      0.18    0.08    0.72
  YSB1174YSB1171       CONDUIT     35.15     0  01:50      0.10    0.05    0.83
  YSB1171HS02004479    CONDUIT     78.01     0  01:53      0.54    0.05    0.67
  HS02004881HS02006253 CONDUIT    139.59     0  01:54      2.67    0.03    0.22
  YS02001793JiankangQianchi CONDUIT    970.10     0  02:10     12.26    0.08    1.00
  YS02001757CaochengTiaoxuchi CONDUIT   2128.28     0  02:02      3.68    0.93    1.00
  WSF200WS02003060     CONDUIT    763.85     0  02:01      1.88    0.17    0.39
  1                    CONDUIT   1068.76     0  02:06      3.39    0.37    0.42
  2                    CONDUIT    102.43     0  05:10      4.88    0.25    0.34
  3                    CONDUIT    504.90     0  05:10      9.81    0.80    0.68
  4                    CONDUIT      0.00     0  00:00      0.00    0.00    0.00
  CC-Pump-1            PUMP       200.00     0  04:00              1.00
  CC-Pump-2            PUMP       200.00     0  04:10              1.00
  JK-Pump-1            PUMP       300.00     0  05:10              1.00
  JK-Pump-2            PUMP       300.00     0  03:50              1.00
  XR-Pump-1            PUMP        95.00     0  00:00              1.00
  XR-Pump-2            PUMP        95.00     0  00:20              1.00
  XR-Pump-3            PUMP        95.00     0  00:00              1.00
  XR-Pump-4            PUMP        95.00     0  00:00              1.00
  
  
  ***************************
  Flow Classification Summary
  ***************************
  
  -------------------------------------------------------------------------------------
                      Adjusted    ---------- Fraction of Time in Flow Class ---------- 
                       /Actual         Up    Down  Sub   Sup   Up    Down  Norm  Inlet 
  Conduit               Length    Dry  Dry   Dry   Crit  Crit  Crit  Crit  Ltd   Ctrl  
  -------------------------------------------------------------------------------------
  WS02003066WSF200        1.00   0.07  0.00  0.00  0.00  0.93  0.00  0.00  0.67  0.00
  WS02006287WS02006284    1.00   0.02  0.01  0.00  0.69  0.28  0.00  0.00  0.65  0.00
  WS02006284WS02006280    1.00   0.03  0.00  0.00  0.00  0.00  0.00  0.97  0.00  0.00
  WS02006280WS02006229    1.00   0.03  0.00  0.00  0.00  0.00  0.00  0.97  0.00  0.00
  WS02006229WS02006228    1.00   0.00  0.00  0.00  1.00  0.00  0.00  0.00  0.00  0.00
  WS02006256WS02006235    1.00   0.04  0.00  0.00  0.96  0.00  0.00  0.00  0.01  0.00
  WS02006253WS02006251    1.00   0.01  0.01  0.00  0.97  0.00  0.00  0.00  0.00  0.00
  WS02006252WS02006251    1.00   0.05  0.01  0.00  0.00  0.00  0.95  0.00  0.00  0.00
  WS02006251WS02006249    1.00   0.00  0.00  0.00  1.00  0.00  0.00  0.00  0.23  0.00
  WS02006249WS02006248    1.00   0.00  0.00  0.00  0.89  0.00  0.10  0.00  0.00  0.00
  WS02006248WS02006247    1.00   0.00  0.00  0.00  0.99  0.00  0.00  0.01  0.13  0.00
  WS02006247WS02006245    1.00   0.00  0.00  0.00  0.98  0.00  0.00  0.02  0.00  0.00
  WS02006245WS02006243    1.00   0.01  0.00  0.00  0.96  0.00  0.00  0.04  0.01  0.00
  WS02006243WS02006242    1.00   0.01  0.00  0.00  0.96  0.00  0.00  0.03  0.11  0.00
  WS02006242WS02006240    1.00   0.01  0.02  0.00  0.96  0.00  0.01  0.00  0.00  0.00
  WS02006240WS02006239    1.00   0.03  0.00  0.00  0.95  0.00  0.00  0.01  0.01  0.00
  WS02006239WS02006238    1.00   0.03  0.00  0.00  0.96  0.00  0.00  0.01  0.00  0.00
  WS02006238WS02006235    1.00   0.03  0.01  0.00  0.96  0.00  0.00  0.00  0.00  0.00
  WS02006235WS02006234    1.00   0.04  0.00  0.00  0.95  0.00  0.01  0.00  0.00  0.00
  WS02006234WS02006232    1.00   0.04  0.00  0.00  0.96  0.00  0.00  0.00  0.01  0.00
  WS02006232WS02006231    1.00   0.04  0.00  0.00  0.96  0.00  0.00  0.00  0.00  0.00
  WS02006231WS02006230    1.00   0.04  0.00  0.00  0.53  0.00  0.43  0.00  0.00  0.00
  WS02006230WS02006229    1.00   0.00  0.00  0.00  0.99  0.00  0.00  0.01  0.00  0.00
  WS02006228WS02006109    1.00   0.00  0.00  0.00  1.00  0.00  0.00  0.00  0.00  0.00
  WS02006116WS02004401    1.00   0.02  0.00  0.00  0.98  0.00  0.00  0.00  0.00  0.00
  WS02006115WS02006116    1.00   0.02  0.00  0.00  0.96  0.00  0.00  0.02  0.00  0.00
  WS02006113WS02006111    1.00   0.01  0.00  0.00  0.02  0.96  0.00  0.00  0.16  0.00
  WS02006112WS02006115    1.00   0.01  0.01  0.00  0.98  0.00  0.00  0.00  0.00  0.00
  WS02006111WS02006112    1.00   0.01  0.00  0.00  0.98  0.00  0.00  0.00  0.85  0.00
  WS02006110WS02006113    1.00   0.00  0.01  0.00  0.99  0.00  0.00  0.00  0.00  0.00
  WS02006109WS02006110    1.00   0.00  0.00  0.00  1.00  0.00  0.00  0.00  0.00  0.00
  WS02004411WS02004412    1.00   0.05  0.00  0.00  0.95  0.00  0.00  0.00  0.00  0.00
  WS02004401WS02004402    1.00   0.02  0.00  0.00  0.98  0.00  0.00  0.00  0.04  0.00
  WS02004413WS02003067    1.00   0.05  0.01  0.00  0.00  0.00  0.94  0.00  0.00  0.00
  WS02004412WS02004413    1.00   0.05  0.00  0.00  0.95  0.00  0.00  0.00  0.00  0.00
  WS02004410WS02004411    1.00   0.05  0.00  0.00  0.95  0.00  0.00  0.00  0.00  0.00
  WS02004409WS02004410    1.00   0.05  0.00  0.00  0.95  0.00  0.00  0.00  0.00  0.00
  WS02004407WS02004409    1.00   0.05  0.00  0.00  0.94  0.01  0.00  0.00  0.79  0.00
  WS02004406WS02004407    1.00   0.00  0.04  0.00  0.95  0.00  0.00  0.00  0.00  0.00
  WS02004405WS02004406    1.00   0.00  0.00  0.00  1.00  0.00  0.00  0.00  0.04  0.00
  WS02004404WS02004405    1.00   0.00  0.00  0.00  1.00  0.00  0.00  0.00  0.00  0.00
  WS02004403WS02004404    1.00   0.00  0.02  0.00  0.98  0.00  0.00  0.00  0.04  0.00
  WS02004402WS02004403    1.00   0.02  0.00  0.00  0.98  0.00  0.00  0.00  0.00  0.00
  WS02004139WS02001211    1.00   0.00  0.00  0.00  1.00  0.00  0.00  0.00  0.00  0.00
  WS02004138WS02004139    1.00   0.00  0.00  0.00  1.00  0.00  0.00  0.00  1.00  0.00
  WS02003067WS02003066    1.00   0.06  0.00  0.00  0.94  0.00  0.00  0.00  0.00  0.00
  WS02001213WS02003059    1.00   0.00  0.00  0.00  1.00  0.00  0.00  0.00  0.00  0.00
  WS02001212WS02001213    1.00   0.00  0.00  0.00  0.87  0.00  0.13  0.00  0.00  0.00
  WS02001211WS02001212    1.00   0.00  0.00  0.00  1.00  0.00  0.00  0.00  0.00  0.00
  WS02003072WS02003073    1.00   0.00  0.00  0.00  0.00  0.00  0.00  1.00  0.00  0.00
  WS02003069WS02003072    1.00   0.00  0.00  0.00  1.00  0.00  0.00  0.00  0.23  0.00
  WS02003060WS02003069    1.00   0.00  0.00  0.00  1.00  0.00  0.00  0.00  0.01  0.00
  WS02003059WS02003060    1.00   0.00  0.00  0.00  1.00  0.00  0.00  0.00  0.01  0.00
  HS02004901HS02004770    1.00   0.02  0.00  0.00  0.98  0.00  0.00  0.00  0.00  0.00
  HS02004876HS02004881    1.00   0.00  0.00  0.00  0.90  0.10  0.00  0.00  0.00  0.00
  HS02004870HS02004876    1.00   0.00  0.00  0.00  1.00  0.00  0.00  0.00  0.95  0.00
  HS02004842HS02004848    1.00   0.00  0.02  0.00  0.97  0.00  0.00  0.00  0.57  0.00
  HS02004837HS02004842    1.00   0.00  0.00  0.00  1.00  0.00  0.00  0.00  0.11  0.00
  HS02004830HS02004837    1.00   0.00  0.00  0.00  1.00  0.00  0.00  0.00  0.99  0.00
  HS02004824HS02004830    1.00   0.00  0.00  0.00  1.00  0.00  0.00  0.00  0.03  0.00
  HS02004817HS02004824    1.00   0.00  0.00  0.00  1.00  0.00  0.00  0.00  0.94  0.00
  HS02004770HS02004777    1.00   0.00  0.02  0.00  0.98  0.00  0.00  0.00  0.03  0.00
  HS02004799HS02004480    1.00   0.00  0.01  0.00  0.97  0.00  0.02  0.00  0.00  0.00
  HS02004792HS02004799    1.00   0.00  0.00  0.00  1.00  0.00  0.00  0.00  0.98  0.00
  HS02004788HS02004792    1.00   0.00  0.00  0.00  1.00  0.00  0.00  0.00  0.98  0.00
  HS02004785HS02004788    1.00   0.00  0.00  0.00  1.00  0.00  0.00  0.00  0.00  0.00
  HS02004777HS02004785    1.00   0.00  0.00  0.00  1.00  0.00  0.00  0.00  0.13  0.00
  HS02004480HS02004478    1.00   0.03  0.00  0.00  0.75  0.00  0.00  0.22  0.00  0.00
  HS02004479HS02004480    1.00   0.01  0.00  0.00  0.99  0.00  0.00  0.00  0.12  0.00
  HS02004862HS02004870    1.00   0.00  0.00  0.00  1.00  0.00  0.00  0.00  0.04  0.00
  HS02004848HS02004852    1.00   0.03  0.00  0.00  0.97  0.00  0.00  0.00  0.78  0.00
  HS02004856HS02004862    1.00   0.00  0.03  0.00  0.97  0.00  0.00  0.00  0.82  0.00
  HS02004852HS02004856    1.00   0.02  0.00  0.00  0.97  0.00  0.00  0.00  0.77  0.00
  HS02004802HS02004478    1.00   0.03  0.00  0.00  0.97  0.00  0.00  0.00  0.03  0.00
  HS02004478WS02006287    1.00   0.03  0.00  0.00  0.82  0.15  0.00  0.00  0.62  0.00
  HS02004817HS02004807    1.00   0.00  0.02  0.00  0.98  0.00  0.00  0.00  0.01  0.00
  HS02004807HS02004802    1.00   0.02  0.00  0.00  0.97  0.00  0.00  0.00  0.00  0.00
  YS02001759YS02001757    1.00   0.00  0.00  0.00  1.00  0.00  0.00  0.00  0.16  0.00
  YS02001762YS02001759    1.00   0.00  0.00  0.00  1.00  0.00  0.00  0.00  0.03  0.00
  YS02001765YS02001762    1.00   0.00  0.00  0.00  1.00  0.00  0.00  0.00  0.14  0.00
  YS02001770YS02001767    1.00   0.00  0.00  0.00  1.00  0.00  0.00  0.00  0.00  0.00
  YS02001774YS02001770    1.00   0.00  0.03  0.00  0.97  0.00  0.00  0.00  0.03  0.00
  YS02001779YS02001774    1.00   0.00  0.00  0.00  1.00  0.00  0.00  0.00  0.18  0.00
  YS02001649YS02001757    1.00   0.00  0.00  0.00  1.00  0.00  0.00  0.00  0.16  0.00
  YS02001767YS02001765    1.00   0.00  0.00  0.00  1.00  0.00  0.00  0.00  0.00  0.00
  YS02006561YS02001783    1.00   0.04  0.00  0.00  0.41  0.55  0.00  0.00  0.50  0.00
  YS02001783YS02001784    1.00   0.00  0.04  0.00  0.96  0.00  0.00  0.00  0.00  0.00
  YS02001784YS02001785    1.00   0.00  0.00  0.00  1.00  0.00  0.00  0.00  0.17  0.00
  YS02001788YS02001790    1.00   0.00  0.00  0.00  0.47  0.53  0.00  0.00  0.43  0.00
  YS02001790YS02001791    1.00   0.00  0.00  0.00  0.44  0.56  0.00  0.00  0.39  0.00
  YS02001791YS02001793    1.00   0.00  0.00  0.00  0.47  0.53  0.00  0.00  0.03  0.00
  YS02001910YS02001907    1.00   0.00  0.00  0.00  0.99  0.00  0.00  0.00  0.12  0.00
  YS02001786YS02001788    1.00   0.00  0.00  0.00  0.46  0.54  0.00  0.00  0.00  0.00
  YS02001915YS02001910    1.00   0.00  0.00  0.00  0.99  0.01  0.00  0.00  0.16  0.00
  YS02001918YS02001915    1.00   0.00  0.00  0.00  1.00  0.00  0.00  0.00  0.52  0.00
  YS02001923YS02001920    1.00   0.00  0.00  0.00  1.00  0.00  0.00  0.00  0.74  0.00
  YS02001926YS02001923    1.00   0.00  0.01  0.00  0.19  0.00  0.79  0.00  0.00  0.00
  YS02001929YS02001926    1.00   0.00  0.02  0.00  0.98  0.00  0.00  0.00  0.66  0.00
  YS02001920YS02001918    1.00   0.00  0.00  0.00  1.00  0.00  0.00  0.00  0.00  0.00
  YS02001629YS02163301    1.00   0.03  0.00  0.00  0.97  0.00  0.00  0.00  0.00  0.00
  YS02001619YS02001622    1.00   0.02  0.00  0.00  0.98  0.00  0.00  0.00  0.00  0.00
  YS02001622YS02001625    1.00   0.03  0.00  0.00  0.97  0.00  0.00  0.00  0.05  0.00
  YS02001625YS02001629    1.00   0.03  0.01  0.00  0.95  0.00  0.01  0.00  0.00  0.00
  YS02163301YS02001633    1.00   0.00  0.03  0.00  0.97  0.00  0.00  0.00  0.00  0.00
  YS02163601YS02164001    1.00   0.00  0.02  0.00  0.98  0.00  0.00  0.00  0.00  0.00
  YS02164001YS02001641    1.00   0.00  0.01  0.00  0.98  0.00  0.00  0.00  0.06  0.00
  YS02001641YS02001644    1.00   0.00  0.00  0.00  1.00  0.00  0.00  0.00  0.00  0.00
  YS02001647YS02001649    1.00   0.00  0.03  0.00  0.97  0.00  0.00  0.00  0.01  0.00
  YS02006553YS02006556    1.00   0.00  0.00  0.00  1.00  0.00  0.00  0.00  0.03  0.00
  YS02006556YS02006558    1.00   0.00  0.00  0.00  1.00  0.00  0.00  0.00  0.00  0.00
  YSB6556YSB1171          1.00   0.01  0.02  0.00  0.98  0.00  0.00  0.00  0.00  0.00
  YS02001907YS02006553    1.00   0.00  0.00  0.00  1.00  0.00  0.00  0.00  0.00  0.00
  YS02006558YS02006561    1.00   0.04  0.00  0.00  0.23  0.74  0.00  0.00  0.42  0.00
  YS02001633YS02163601    1.00   0.00  0.00  0.00  1.00  0.00  0.00  0.00  0.15  0.00
  YS02001644YS02001647    1.00   0.00  0.03  0.00  0.97  0.00  0.00  0.00  0.00  0.00
  YS02001745YS02001748    1.00   0.00  0.00  0.00  0.94  0.00  0.00  0.06  0.01  0.00
  YS02001748YS02001751    1.00   0.00  0.00  0.00  0.98  0.02  0.00  0.00  0.14  0.00
  YS02001751YS02001754    1.00   0.00  0.00  0.00  0.96  0.00  0.00  0.04  0.01  0.00
  YS02001754YS02001757    1.00   0.00  0.00  0.00  1.00  0.00  0.00  0.00  0.18  0.00
  YS02001882YS02001884    1.00   0.03  0.00  0.00  0.97  0.00  0.00  0.00  0.00  0.00
  YS02001884YS02001887    1.00   0.01  0.01  0.00  0.98  0.00  0.00  0.00  0.00  0.00
  YS02001890YS02001895    1.00   0.00  0.03  0.00  0.97  0.00  0.00  0.00  0.00  0.00
  YS02001895YS02001898    1.00   0.03  0.00  0.00  0.96  0.00  0.01  0.00  0.00  0.00
  YS02001898YS02001901    1.00   0.03  0.00  0.00  0.97  0.00  0.00  0.00  0.01  0.00
  YS02001901YS02001904    1.00   0.03  0.00  0.00  0.97  0.00  0.00  0.00  0.00  0.00
  YS02001904YS02001907    1.00   0.00  0.03  0.00  0.97  0.00  0.00  0.00  0.00  0.00
  YS02001887YS02001890    1.00   0.00  0.00  0.00  0.99  0.00  0.01  0.00  0.00  0.00
  YS02001652YS02001649    1.00   0.00  0.00  0.00  1.00  0.00  0.00  0.00  0.16  0.00
  YS02001655YS02001652    1.00   0.00  0.00  0.00  0.96  0.00  0.00  0.04  0.01  0.00
  YS02001658YS02001655    1.00   0.00  0.03  0.00  0.95  0.02  0.00  0.00  0.02  0.00
  YS02001661YS02001658    1.00   0.03  0.00  0.00  0.93  0.04  0.00  0.00  0.00  0.00
  YS02001664YS02001661    1.00   0.02  0.00  0.00  0.94  0.03  0.00  0.00  0.11  0.00
  YSB1154YSB6556          1.00   0.02  0.00  0.00  0.98  0.00  0.00  0.00  0.02  0.00
  YSB1174YSB1171          1.00   0.01  0.01  0.00  0.98  0.00  0.00  0.00  0.00  0.00
  YSB1171HS02004479       1.00   0.01  0.00  0.00  0.99  0.00  0.00  0.00  0.11  0.00
  HS02004881HS02006253    1.00   0.01  0.00  0.00  0.52  0.08  0.00  0.39  0.43  0.00
  YS02001793JiankangQianchi    1.00   0.00  0.00  0.00  0.65  0.35  0.00  0.00  0.30  0.00
  YS02001757CaochengTiaoxuchi    1.00   0.00  0.05  0.00  0.92  0.03  0.00  0.00  0.00  0.00
  WSF200WS02003060        1.00   0.00  0.07  0.00  0.68  0.26  0.00  0.00  0.24  0.00
  1                       1.00   0.00  0.00  0.00  0.00  1.00  0.00  0.00  0.36  0.00
  2                       1.00   0.75  0.00  0.00  0.00  0.25  0.00  0.00  0.05  0.00
  3                       1.00   0.19  0.00  0.00  0.00  0.81  0.00  0.00  0.01  0.00
  4                       1.00   1.00  0.00  0.00  0.00  0.00  0.00  0.00  0.00  0.00
  
  
  *************************
  Conduit Surcharge Summary
  *************************
  
  ----------------------------------------------------------------------------
                                                           Hours        Hours 
                         --------- Hours Full --------   Above Full   Capacity
  Conduit                Both Ends  Upstream  Dnstream   Normal Flow   Limited
  ----------------------------------------------------------------------------
  WS02006229WS02006228        1.79      1.94      1.79      3.52         1.79
  WS02006256WS02006235        5.49      5.49      6.22      3.03         0.01
  WS02006252WS02006251        0.77      0.77      1.26      1.14         0.01
  WS02006251WS02006249        0.01      0.01      0.01      0.76         0.01
  WS02006249WS02006248        0.01      0.01      0.01      2.32         0.01
  WS02006247WS02006245        0.01      0.01      0.01      3.35         0.01
  WS02006243WS02006242        0.01      0.01      0.95      0.01         0.01
  WS02006242WS02006240        0.23      0.23      1.26      1.26         0.01
  WS02006240WS02006239        0.33      0.33      0.47      0.01         0.01
  WS02006239WS02006238        1.29      1.29      1.43      0.01         0.01
  WS02006238WS02006235        1.34      1.34      1.63      0.01         0.01
  WS02006235WS02006234        0.47      0.47      1.19      5.11         0.04
  WS02006234WS02006232        0.60      0.60      1.77      0.01         0.01
  WS02006232WS02006231        0.52      0.52      1.77      0.01         0.01
  WS02006231WS02006230        0.52      0.52      0.53      5.50         0.03
  WS02006230WS02006229        2.49      3.08      2.49      6.07         2.42
  WS02006228WS02006109        1.86      2.21      1.86      5.36         1.86
  WS02006116WS02004401        0.35      0.35      0.36      0.25         0.25
  WS02006115WS02006116        0.13      0.13      0.15      0.01         0.01
  WS02006112WS02006115        0.06      0.06      0.73      0.01         0.01
  WS02006111WS02006112        0.01      0.01      3.96      0.01         0.01
  WS02006110WS02006113        0.01      0.01      2.07      0.01         0.01
  WS02006109WS02006110        0.67      0.67      2.21      0.67         0.01
  WS02004411WS02004412        0.01      0.01      0.01      0.31         0.01
  WS02004401WS02004402        0.36      0.36      0.41      0.01         0.01
  WS02004410WS02004411        0.01      0.01      0.01      0.22         0.01
  WS02004406WS02004407        0.01      0.01      0.52      0.01         0.01
  WS02004405WS02004406        0.52      0.55      0.52      0.70         0.52
  WS02004404WS02004405        0.55      0.57      0.55      6.20         0.55
  WS02004403WS02004404        0.42      0.42      0.57      0.01         0.01
  WS02004402WS02004403        0.41      0.41      0.42      0.33         0.33
  WS02003072WS02003073        0.01      0.01      0.01      5.31         0.01
  HS02004876HS02004881        0.01      0.01      0.01      0.49         0.01
  HS02004785HS02004788        0.01      0.01      0.01      0.35         0.01
  HS02004480HS02004478        0.01      0.01      0.01      0.79         0.01
  YS02001759YS02001757        6.09      6.09      6.12      0.01         0.01
  YS02001762YS02001759        6.08      6.08      6.09      0.01         0.01
  YS02001765YS02001762        6.08      6.08      6.08      0.01         0.01
  YS02001770YS02001767        6.07      6.07      6.07      0.99         0.67
  YS02001774YS02001770        6.07      6.07      6.08      0.01         0.01
  YS02001779YS02001774        6.04      6.04      6.08      0.01         0.01
  YS02001649YS02001757        6.08      6.08      6.12      0.01         0.01
  YS02001767YS02001765        6.07      6.07      6.08      0.01         0.01
  YS02006561YS02001783        1.67      1.67      2.23      0.01         0.01
  YS02001783YS02001784        2.23      2.23      2.29      1.99         2.00
  YS02001784YS02001785        2.24      2.29      2.24      2.73         2.23
  YS02001788YS02001790        2.22      2.22      3.03      0.01         0.01
  YS02001790YS02001791        3.03      3.03      3.06      1.52         1.51
  YS02001791YS02001793        3.06      3.06      3.18      0.01         0.01
  YS02001910YS02001907        1.96      1.96      2.26      0.01         0.01
  YS02001786YS02001788        2.22      2.24      2.22      2.38         2.21
  YS02001915YS02001910        1.78      1.78      1.96      0.01         0.01
  YS02001918YS02001915        1.55      1.55      1.78      0.01         0.01
  YS02001923YS02001920        1.36      1.36      1.59      0.01         0.01
  YS02001926YS02001923        0.01      0.01      0.01      0.01         0.01
  YS02001929YS02001926        0.01      0.01      0.01      0.01         0.01
  YS02001920YS02001918        1.55      1.55      1.59      0.01         0.01
  YS02001629YS02163301        6.06      6.06      6.07      0.01         0.01
  YS02001619YS02001622        6.02      6.02      6.02      0.01         0.01
  YS02001622YS02001625        6.02      6.02      6.05      0.01         0.01
  YS02001625YS02001629        6.02      6.02      6.05      0.01         0.01
  YS02163301YS02001633        6.07      6.07      6.08      0.01         0.01
  YS02163601YS02164001        6.08      6.08      6.09      0.01         0.01
  YS02164001YS02001641        6.08      6.08      6.08      0.01         0.02
  YS02001641YS02001644        6.08      6.08      6.08      2.21         2.26
  YS02001647YS02001649        6.05      6.05      6.08      0.01         0.01
  YS02006553YS02006556        2.13      2.13      2.30      0.01         0.01
  YS02006556YS02006558        2.18      2.18      2.36      0.01         0.01
  YSB6556YSB1171              0.01      0.01      0.14      0.01         0.01
  YS02001907YS02006553        2.76      2.76      2.95      0.01         0.01
  YS02006558YS02006561        1.87      2.10      1.87      2.62         1.87
  YS02001633YS02163601        6.08      6.08      6.09      0.01         0.01
  YS02001644YS02001647        6.05      6.05      6.08      0.01         0.01
  YS02001745YS02001748        0.01      0.01      5.99      0.01         0.01
  YS02001748YS02001751        6.00      6.00      6.02      0.01         0.01
  YS02001751YS02001754        6.02      6.02      6.04      0.01         0.01
  YS02001754YS02001757        6.05      6.05      6.12      0.01         0.01
  YS02001882YS02001884        1.79      1.79      1.82      0.01         0.01
  YS02001884YS02001887        1.87      1.87      1.89      0.01         0.01
  YS02001890YS02001895        1.77      1.77      1.97      0.01         0.01
  YS02001895YS02001898        1.75      1.75      1.77      0.01         0.01
  YS02001898YS02001901        1.77      1.77      1.86      0.01         0.01
  YS02001901YS02001904        1.85      1.85      1.86      0.01         0.01
  YS02001904YS02001907        1.85      1.85      2.32      0.01         0.01
  YS02001887YS02001890        1.92      1.92      1.95      0.20         0.01
  YS02001652YS02001649        6.06      6.06      6.08      0.01         0.01
  YS02001655YS02001652        6.02      6.02      6.05      0.01         0.01
  YS02001658YS02001655        5.99      5.99      6.02      0.01         0.01
  YS02001661YS02001658        0.16      0.16      5.99      0.01         0.01
  YS02001664YS02001661        0.01      0.01      1.83      0.01         0.01
  YS02001793JiankangQianchi        3.14      3.14      5.53      0.01         0.01
  YS02001757CaochengTiaoxuchi        5.64      5.64      6.12      0.01         0.01
  
  
  ***************
  Pumping Summary
  ***************
  
  ---------------------------------------------------------------------------------------------------------
                                                  Min       Avg       Max     Total     Power    % Time Off
                        Percent   Number of      Flow      Flow      Flow    Volume     Usage    Pump Curve
  Pump                 Utilized   Start-Ups       LPS       LPS       LPS  10^6 ltr     Kw-hr    Low   High
  ---------------------------------------------------------------------------------------------------------
  CC-Pump-1               38.29           4      0.00    147.37    200.00     1.560      1.45    0.0    0.0
  CC-Pump-2               43.10           7      0.00    128.68    200.00     1.509      1.62    0.0    6.2
  JK-Pump-1               51.06           4      0.00    169.87    300.00     2.344     32.41    0.0    0.0
  JK-Pump-2               48.94           4      0.00    191.99    300.00     2.523     26.49    0.0    0.0
  XR-Pump-1               89.35           5      0.00     77.21     95.00     2.109     19.16    0.0    0.0
  XR-Pump-2               91.47           8      0.00     71.18     95.00     1.966     16.84    0.0    0.0
  XR-Pump-3               82.97           5      0.00     65.75     95.00     1.767     16.80    0.0    0.0
  XR-Pump-4               61.68           9      0.00     69.63     95.00     1.197      8.03    0.0    0.0
  

  Analysis begun on:  Wed Dec 22 09:53:43 2021
  Analysis ended on:  Wed Dec 22 09:53:47 2021
  Total elapsed time: 00:00:04