
  EPA STORM WATER MANAGEMENT MODEL - VERSION 5.1 (Build 5.3.0.dev0)
  --------------------------------------------------------------

  WARNING 04: minimum elevation drop used for Conduit WS02004404WS02004405
  WARNING 03: negative offset ignored for Link YS02001904YS02001907
  
  *********************************************************
  NOTE: The summary statistics displayed in this report are
  based on results found at every computational time step,  
  not just on results from each reporting time step.
  *********************************************************
  
  ****************
  Analysis Options
  ****************
  Flow Units ............... LPS
  Process Models:
    Rainfall/Runoff ........ YES
    RDII ................... NO
    Snowmelt ............... NO
    Groundwater ............ NO
    Flow Routing ........... YES
    Ponding Allowed ........ NO
    Water Quality .......... NO
  Infiltration Method ...... HORTON
  Flow Routing Method ...... DYNWAVE
  Surcharge Method ......... EXTRAN
  Starting Date ............ 08/28/2015 08:00:00
  Ending Date .............. 08/28/2015 15:50:00
  Antecedent Dry Days ...... 8.0
  Report Time Step ......... 00:01:00
  Wet Time Step ............ 00:01:00
  Dry Time Step ............ 00:01:00
  Routing Time Step ........ 5.00 sec
  Variable Time Step ....... YES
  Maximum Trials ........... 8
  Number of Threads ........ 4
  Head Tolerance ........... 0.001500 m
  
  
  **************************        Volume         Depth
  Runoff Quantity Continuity     hectare-m            mm
  **************************     ---------       -------
  Total Precipitation ......         7.641        16.729
  Evaporation Loss .........         0.000         0.000
  Infiltration Loss ........         1.880         4.117
  Surface Runoff ...........         4.668        10.221
  Final Storage ............         1.093         2.393
  Continuity Error (%) .....        -0.013
  
  
  **************************        Volume        Volume
  Flow Routing Continuity        hectare-m      10^6 ltr
  **************************     ---------     ---------
  Dry Weather Inflow .......         0.616         6.165
  Wet Weather Inflow .......         4.667        46.672
  Groundwater Inflow .......         0.000         0.000
  RDII Inflow ..............         0.000         0.000
  External Inflow ..........         0.102         1.024
  External Outflow .........         1.990        19.902
  Flooding Loss ............         2.904        29.044
  Evaporation Loss .........         0.000         0.000
  Exfiltration Loss ........         0.000         0.000
  Initial Stored Volume ....         0.076         0.761
  Final Stored Volume ......         0.653         6.532
  Continuity Error (%) .....        -1.570
  
  
  *************************
  Highest Continuity Errors
  *************************
  Node HS02004842 (12.71%)
  Node YS02001884 (11.64%)
  Node JK-storage (-7.23%)
  Node HS02004817 (2.32%)
  Node YSB1171 (2.18%)
  
  
  ***************************
  Time-Step Critical Elements
  ***************************
  Link 3 (49.36%)
  Link WS02006252WS02006251 (39.75%)
  Link WS02006238WS02006235 (2.96%)
  Link WS02006280WS02006229 (2.94%)
  
  
  ********************************
  Highest Flow Instability Indexes
  ********************************
  Link WS02006113WS02006111 (40)
  Link YS02163601YS02164001 (33)
  Link YS02163301YS02001633 (33)
  Link YS02001629YS02163301 (33)
  Link YS02001619YS02001622 (32)
  
  
  *************************
  Routing Time Step Summary
  *************************
  Minimum Time Step           :     0.22 sec
  Average Time Step           :     0.83 sec
  Maximum Time Step           :     5.00 sec
  Percent in Steady State     :    -0.00
  Average Iterations per Step :     4.09
  Percent Not Converging      :    15.06
  
  
  ***************************
  Subcatchment Runoff Summary
  ***************************
  
  ------------------------------------------------------------------------------------------------------------------------------
                            Total      Total      Total      Total     Imperv       Perv      Total       Total     Peak  Runoff
                           Precip      Runon       Evap      Infil     Runoff     Runoff     Runoff      Runoff   Runoff   Coeff
  Subcatchment                 mm         mm         mm         mm         mm         mm         mm    10^6 ltr      LPS
  ------------------------------------------------------------------------------------------------------------------------------
  sub0                      16.73       0.00       0.00       0.97      14.29       0.20      14.50        0.01     3.66   0.867
  sub1                      16.73       0.00       0.00       1.58      13.63       0.26      13.89        0.09    24.51   0.830
  sub2                      16.73       0.00       0.00       5.80       9.63       0.39      10.02        0.09    22.91   0.599
  sub3                      16.73       0.00       0.00       5.88       9.59       0.31       9.90        0.22    50.49   0.592
  sub4                      16.73       0.00       0.00       1.65      13.47       0.19      13.66        0.28    60.01   0.817
  sub5                      16.73       0.00       0.00       0.99      14.24       0.18      14.42        0.16    43.61   0.862
  sub7                      16.73       0.00       0.00       1.26      13.97       0.24      14.21        0.05    13.82   0.849
  sub8                      16.73       0.00       0.00       1.27      13.96       0.23      14.19        0.09    25.44   0.848
  sub9                      16.73       0.00       0.00       1.27      13.96       0.23      14.19        0.07    19.02   0.848
  sub10                     16.73       0.00       0.00       1.13      14.10       0.21      14.30        0.16    42.73   0.855
  sub11                     16.73       0.00       0.00       1.12      14.11       0.21      14.33        0.17    47.25   0.857
  sub12                     16.73       0.00       0.00       1.83      13.37       0.35      13.71        0.12    35.87   0.820
  sub14                     16.73       0.00       0.00       1.27      13.95       0.23      14.19        0.14    37.43   0.848
  sub15                     16.73       0.00       0.00       4.53      10.73       0.49      11.22        0.19    51.47   0.671
  sub16                     16.73       0.00       0.00       4.88      10.29       0.64      10.93        0.11    32.57   0.653
  sub17                     16.73       0.00       0.00       4.74      10.44       0.61      11.05        0.09    26.81   0.661
  sub22                     16.73       0.00       0.00       6.60       8.75       0.59       9.34        0.59   160.16   0.558
  sub23                     16.73       0.00       0.00       5.59       9.67       0.60      10.27        0.49   134.74   0.614
  sub60                     16.73       0.00       0.00       1.94      11.65       0.06      11.71        3.55   386.89   0.700
  sub61                     16.73       0.00       0.00       2.75      11.65       0.09      11.73        3.62   476.87   0.701
  sub62                     16.73       0.00       0.00       1.26      12.72       0.07      12.79        3.93   491.27   0.765
  sub63                     16.73       0.00       0.00       4.75      10.14       0.10      10.23        3.10   437.54   0.612
  sub64                     16.73       0.00       0.00       2.45      11.19       0.06      11.26        3.42   367.58   0.673
  sub65                     16.73       0.00       0.00       2.11      11.40       0.06      11.46        3.52   372.98   0.685
  sub66                     16.73       0.00       0.00       4.79       9.55       0.06       9.61        2.95   336.52   0.575
  sub67                     16.73       0.00       0.00       1.24      13.25       0.09      13.35        4.12   605.48   0.798
  sub68                     16.73       0.00       0.00       2.25      12.20       0.10      12.30        3.78   521.64   0.735
  sub69                     16.73       0.00       0.00       2.37      12.50       0.14      12.64        2.95   482.20   0.755
  sub70                     16.73      12.90       0.00       8.98      17.16       1.09      18.25        4.18   460.88   0.616
  sub71                     16.73       0.00       0.00       1.27      12.46       0.07      12.53        2.96   345.19   0.749
  sub72                     16.73       0.00       0.00       1.14      10.39       0.03      10.43        2.12   185.81   0.623
  sub73                     16.73      17.77       0.00       9.78      19.72       1.38      21.10        4.96   482.28   0.612
  sub74                     16.73       0.00       0.00      12.48       3.71       0.07       3.78        1.51   261.10   0.226
  
  
  ******************
  Node Depth Summary
  ******************
  
  ---------------------------------------------------------------------------------
                                 Average  Maximum  Maximum  Time of Max    Reported
                                   Depth    Depth      HGL   Occurrence   Max Depth
  Node                 Type       Meters   Meters   Meters  days hr:min      Meters
  ---------------------------------------------------------------------------------
  WS02001211           JUNCTION     0.64     0.76     5.60     0  02:01        0.76
  WS02001212           JUNCTION     0.37     0.50     5.56     0  02:00        0.50
  WS02001213           JUNCTION     0.61     0.77     5.54     0  02:00        0.77
  WS02003069           JUNCTION     0.44     0.64     5.23     0  02:00        0.64
  WS02003072           JUNCTION     0.51     0.70     5.07     0  02:00        0.70
  WS02003073           JUNCTION     0.30     0.43     4.50     0  02:01        0.43
  WS02003060           JUNCTION     0.39     0.57     5.50     0  01:59        0.57
  WS02003066           JUNCTION     0.24     0.36     5.92     0  01:56        0.36
  WS02003059           JUNCTION     0.67     0.84     5.52     0  02:00        0.84
  WS02003067           JUNCTION     0.59     0.79     6.11     0  01:55        0.79
  WS02004401           JUNCTION     0.70     1.13     7.13     0  01:51        1.12
  WS02004402           JUNCTION     0.73     1.13     7.09     0  01:51        1.12
  WS02004403           JUNCTION     0.75     1.12     7.05     0  01:49        1.11
  WS02004404           JUNCTION     0.83     1.17     7.02     0  01:49        1.16
  WS02004406           JUNCTION     0.83     1.13     6.96     0  01:49        1.11
  WS02004409           JUNCTION     0.52     0.86     6.63     0  01:55        0.86
  WS02004410           JUNCTION     0.53     0.86     6.58     0  01:55        0.86
  WS02004411           JUNCTION     0.55     0.86     6.54     0  01:55        0.86
  WS02004412           JUNCTION     0.56     0.84     6.48     0  01:55        0.84
  WS02004413           JUNCTION     0.71     0.98     6.45     0  01:55        0.98
  WS02004405           JUNCTION     0.82     1.15     7.00     0  01:49        1.14
  WS02006109           JUNCTION     0.79     1.28     7.89     0  01:54        1.27
  WS02006110           JUNCTION     0.78     1.12     7.71     0  01:52        1.12
  WS02006111           JUNCTION     0.25     0.63     7.34     0  01:53        0.63
  WS02006112           JUNCTION     0.88     1.41     7.29     0  01:54        1.40
  WS02006113           JUNCTION     0.36     0.63     7.52     0  01:52        0.63
  WS02006115           JUNCTION     0.60     1.08     7.22     0  01:51        1.08
  WS02006116           JUNCTION     0.68     1.14     7.18     0  01:51        1.14
  WS02006230           JUNCTION     0.77     1.68     8.42     0  01:44        1.40
  WS02006231           JUNCTION     0.51     1.13     8.25     0  01:44        1.03
  WS02006232           JUNCTION     0.64     1.22     8.26     0  01:45        1.12
  WS02006234           JUNCTION     0.56     1.25     8.41     0  01:45        1.02
  WS02006235           JUNCTION     0.59     1.20     8.36     0  01:45        1.02
  WS02006238           JUNCTION     0.61     1.23     8.38     0  01:45        1.04
  WS02006240           JUNCTION     0.50     1.55     8.84     0  01:44        1.47
  WS02006242           JUNCTION     0.56     1.55     8.82     0  01:44        0.98
  WS02006243           JUNCTION     0.43     1.48     8.90     0  01:44        0.84
  WS02006245           JUNCTION     0.41     1.56     9.04     0  01:45        0.79
  WS02006247           JUNCTION     0.43     1.47     8.97     0  01:45        0.78
  WS02006248           JUNCTION     0.37     0.71     8.29     0  01:50        0.70
  WS02006249           JUNCTION     0.41     0.70     8.30     0  01:50        0.70
  WS02006239           JUNCTION     0.57     1.47     8.67     0  01:44        0.99
  WS02006251           JUNCTION     0.39     0.80     8.47     0  01:50        0.79
  WS02006252           JUNCTION     0.33     0.59     8.83     0  01:49        0.58
  WS02006253           JUNCTION     0.42     0.83     8.48     0  01:50        0.83
  WS02006256           JUNCTION     1.04     1.24     8.17     0  01:50        1.24
  WS02004138           JUNCTION     0.14     0.19     7.44     0  04:00        0.19
  WS02004407           JUNCTION     0.23     0.37     6.68     0  01:53        0.37
  WS02006228           JUNCTION     0.80     1.40     8.05     0  01:53        1.40
  WS02006229           JUNCTION     0.78     1.44     8.14     0  01:52        1.44
  WS02006280           JUNCTION     0.08     0.25     8.52     0  01:55        0.25
  WS02006284           JUNCTION     0.38     0.64     9.04     0  01:55        0.64
  WS02006287           JUNCTION     0.11     0.38     9.33     0  01:54        0.38
  WSF200               JUNCTION     0.23     0.40     5.63     0  01:57        0.40
  HS02004901           JUNCTION     0.14     0.36    10.18     0  01:52        0.36
  HS02004881           JUNCTION     0.01     0.05     9.08     0  01:54        0.05
  HS02004876           JUNCTION     0.05     0.16     9.19     0  01:55        0.16
  HS02004870           JUNCTION     0.02     0.09     9.38     0  01:55        0.09
  HS02004862           JUNCTION     0.02     0.11     9.49     0  01:55        0.11
  HS02004856           JUNCTION     0.08     0.15     9.58     0  01:55        0.15
  HS02004852           JUNCTION     0.01     0.07     9.59     0  01:55        0.07
  HS02004848           JUNCTION     0.01     0.07     9.67     0  01:55        0.07
  HS02004842           JUNCTION     0.34     0.40     9.67     0  01:55        0.40
  HS02004837           JUNCTION     0.03     0.09     9.67     0  01:55        0.09
  HS02004830           JUNCTION     0.04     0.10     9.57     0  01:56        0.10
  HS02004824           JUNCTION     0.03     0.12     9.53     0  01:55        0.12
  HS02004817           JUNCTION     0.46     0.69     9.53     0  01:55        0.69
  HS02004807           JUNCTION     0.14     0.36     9.53     0  01:55        0.36
  HS02004802           JUNCTION     0.18     0.39     9.52     0  01:55        0.39
  HS02004799           JUNCTION     0.14     0.45     9.66     0  01:53        0.45
  HS02004792           JUNCTION     0.04     0.20     9.73     0  01:52        0.20
  HS02004788           JUNCTION     0.03     0.15    10.05     0  01:53        0.15
  HS02004785           JUNCTION     0.06     0.23    10.14     0  01:52        0.23
  HS02004777           JUNCTION     0.16     0.37    10.17     0  01:52        0.37
  HS02004770           JUNCTION     0.13     0.35    10.18     0  01:52        0.35
  HS02004480           JUNCTION     0.10     0.37     9.61     0  01:53        0.37
  HS02004479           JUNCTION     0.13     0.41     9.61     0  01:53        0.41
  HS02004478           JUNCTION     0.07     0.27     9.50     0  01:54        0.27
  YS02001745           JUNCTION     0.79     0.95     8.47     0  03:00        0.95
  YS02001748           JUNCTION     1.20     1.74     8.82     0  01:50        1.38
  YS02001751           JUNCTION     1.38     2.00     8.88     0  01:48        1.58
  YS02001754           JUNCTION     1.64     1.92     8.53     0  01:48        1.84
  YS02001762           JUNCTION     1.85     2.05     8.45     0  02:29        2.04
  YS02001765           JUNCTION     1.80     2.00     8.45     0  02:29        1.98
  YS02001767           JUNCTION     1.76     1.95     8.44     0  02:29        1.94
  YS02001770           JUNCTION     1.76     1.93     8.42     0  02:55        1.93
  YS02001774           JUNCTION     1.83     1.98     8.40     0  02:38        1.98
  YS02001779           JUNCTION     1.57     1.68     8.37     0  01:47        1.68
  YS02001882           JUNCTION     0.65     1.69     8.41     0  01:57        1.62
  YS02001884           JUNCTION     0.75     1.78     8.40     0  01:57        1.73
  YS02001759           JUNCTION     1.88     2.08     8.44     0  02:36        2.08
  YS02001887           JUNCTION     0.82     1.83     8.37     0  01:57        1.81
  YS02001890           JUNCTION     0.85     1.81     8.32     0  01:57        1.81
  YS02001898           JUNCTION     0.62     1.58     8.32     0  01:57        1.56
  YS02001901           JUNCTION     0.74     1.69     8.30     0  01:57        1.67
  YS02001904           JUNCTION     0.71     1.65     8.28     0  01:57        1.63
  YS02001907           JUNCTION     1.05     1.96     8.25     0  01:57        1.96
  YS02001910           JUNCTION     0.84     1.96     8.46     0  01:58        1.80
  YS02001915           JUNCTION     0.63     1.90     8.61     0  01:58        1.65
  YS02001918           JUNCTION     0.37     1.81     8.88     0  01:58        1.37
  YS02001619           JUNCTION     1.35     1.61     8.54     0  01:48        1.48
  YS02001629           JUNCTION     1.71     1.85     8.40     0  01:47        1.85
  YS02001641           JUNCTION     1.81     1.93     8.37     0  02:21        1.93
  YS02001644           JUNCTION     1.81     1.92     8.35     0  01:51        1.92
  YS02001652           JUNCTION     1.66     2.16     8.76     0  02:17        1.94
  YS02001655           JUNCTION     1.41     2.20     9.05     0  02:17        1.85
  YS02001920           JUNCTION     0.47     2.14     9.15     0  01:58        1.47
  YS02001923           JUNCTION     0.30     2.01     9.27     0  01:58        1.25
  YS02001926           JUNCTION     0.34     1.71     9.16     0  01:58        1.11
  YS02001929           JUNCTION     0.20     1.78     9.47     0  01:58        0.93
  YS02001658           JUNCTION     1.14     2.22     9.37     0  02:18        2.00
  YS02001661           JUNCTION     0.90     2.46     9.86     0  02:17        2.16
  YS02001664           JUNCTION     0.40     0.57     8.49     0  04:16        0.56
  YS02001622           JUNCTION     1.37     1.62     8.52     0  01:47        1.50
  YS02001633           JUNCTION     1.80     1.95     8.40     0  02:04        1.94
  YS02001649           JUNCTION     1.86     2.05     8.44     0  01:54        2.05
  YS02001757           JUNCTION     1.98     2.18     8.44     0  03:00        2.18
  YS02001895           JUNCTION     0.61     1.58     8.32     0  01:57        1.56
  YS02001625           JUNCTION     1.66     1.78     8.38     0  01:46        1.78
  YS02163301           JUNCTION     1.74     1.91     8.42     0  01:47        1.88
  YS02163601           JUNCTION     1.85     1.99     8.39     0  02:14        1.98
  YS02164001           JUNCTION     1.79     1.92     8.38     0  01:50        1.91
  YS02001647           JUNCTION     1.64     1.81     8.42     0  02:10        1.78
  YSB1154              JUNCTION     0.28     0.56     9.62     0  01:53        0.56
  YSB6556              JUNCTION     0.17     0.44     9.61     0  01:53        0.44
  YSB1174              JUNCTION     0.23     0.50     9.61     0  01:53        0.50
  YSB1171              JUNCTION     0.43     0.71     9.61     0  01:53        0.71
  YS02006553           JUNCTION     1.05     2.18     8.47     0  01:57        1.96
  YS02006561           JUNCTION     0.39     1.95     8.61     0  01:57        1.08
  YS02006556           JUNCTION     1.01     2.39     8.70     0  01:57        1.93
  YS02006558           JUNCTION     1.06     2.50     8.77     0  01:57        1.96
  YS02001783           JUNCTION     0.63     2.40     8.54     0  01:57        1.47
  YS02001784           JUNCTION     0.64     2.29     8.36     0  01:57        1.43
  YS02001786           JUNCTION     0.57     2.23     8.26     0  01:56        1.50
  YS02001788           JUNCTION     0.50     2.28     8.26     0  01:56        1.56
  YS02001790           JUNCTION     0.61     1.96     7.60     0  01:56        1.89
  YS02001791           JUNCTION     0.57     2.50     7.97     0  01:56        1.56
  YS02001793           JUNCTION     0.76     2.05     6.88     0  01:56        1.91
  WS02004139           JUNCTION     0.57     0.70     5.61     0  02:01        0.70
  WSC                  OUTFALL      0.30     0.43     1.10     0  02:01        0.43
  3                    OUTFALL      0.11     0.23     6.23     0  01:50        0.23
  4                    OUTFALL      0.02     0.20     7.20     0  01:50        0.20
  5                    OUTFALL      0.00     0.00     5.00     0  00:00        0.00
  JK-storage           STORAGE      3.05     5.80     6.60     0  01:57        5.80
  CC-storage           STORAGE      1.19     1.44     8.44     0  03:01        1.44
  XR-storage           STORAGE      7.19     7.72     5.72     0  02:10        7.72
  
  
  *******************
  Node Inflow Summary
  *******************
  
  -------------------------------------------------------------------------------------------------
                                  Maximum  Maximum                  Lateral       Total        Flow
                                  Lateral    Total  Time of Max      Inflow      Inflow     Balance
                                   Inflow   Inflow   Occurrence      Volume      Volume       Error
  Node                 Type           LPS      LPS  days hr:min    10^6 ltr    10^6 ltr     Percent
  -------------------------------------------------------------------------------------------------
  WS02001211           JUNCTION      7.35   372.99     0  04:00       0.207        6.48       0.448
  WS02001212           JUNCTION      0.00   361.54     0  04:01           0        6.45       0.277
  WS02001213           JUNCTION      0.00   355.85     0  04:01           0        6.43       0.292
  WS02003069           JUNCTION      0.32  1114.92     0  01:59     0.00902        15.3       0.154
  WS02003072           JUNCTION      0.00  1114.84     0  02:00           0        15.3       0.200
  WS02003073           JUNCTION      1.82  1116.71     0  02:00      0.0514        15.3       0.221
  WS02003060           JUNCTION     16.53  1114.56     0  01:59       0.466        15.3       0.146
  WS02003066           JUNCTION      0.00   821.76     0  01:55           0         8.5       0.043
  WS02003059           JUNCTION      0.00   349.96     0  04:02           0        6.41       0.494
  WS02003067           JUNCTION      0.00   821.71     0  01:55           0         8.5       0.092
  WS02004401           JUNCTION      0.00   823.89     0  01:53           0         8.7       0.208
  WS02004402           JUNCTION      0.00   823.82     0  01:53           0        8.68       0.199
  WS02004403           JUNCTION      0.00   823.77     0  01:53           0        8.66       0.184
  WS02004404           JUNCTION      0.16   823.89     0  01:53     0.00457        8.65       0.141
  WS02004406           JUNCTION      0.00   823.95     0  01:53           0        8.62       0.343
  WS02004409           JUNCTION      0.00   823.92     0  01:53           0        8.59       0.142
  WS02004410           JUNCTION      0.00   822.47     0  01:54           0        8.58       0.167
  WS02004411           JUNCTION      0.00   821.92     0  01:54           0        8.56       0.175
  WS02004412           JUNCTION      0.00   821.70     0  01:55           0        8.55       0.194
  WS02004413           JUNCTION      0.00   821.73     0  01:55           0        8.53       0.303
  WS02004405           JUNCTION      0.04   823.92     0  01:53     0.00107        8.64       0.215
  WS02006109           JUNCTION      1.23   797.27     0  01:52      0.0347        8.71       0.219
  WS02006110           JUNCTION      0.00   797.27     0  01:52           0        8.69       0.211
  WS02006111           JUNCTION      0.00   797.35     0  01:53           0        8.66       0.038
  WS02006112           JUNCTION     26.81   823.75     0  01:53      0.0948        8.75       0.270
  WS02006113           JUNCTION      0.00   797.27     0  01:52           0        8.67       0.088
  WS02006115           JUNCTION      0.00   823.76     0  01:53           0        8.73       0.207
  WS02006116           JUNCTION      0.00   823.75     0  01:53           0        8.71       0.136
  WS02006230           JUNCTION     10.28   396.62     0  06:12        0.29        6.01       0.156
  WS02006231           JUNCTION      0.00   388.17     0  06:12           0        5.73       0.183
  WS02006232           JUNCTION      0.00   388.34     0  06:12           0        5.74       0.212
  WS02006234           JUNCTION      0.00   390.04     0  04:52           0        5.75       0.121
  WS02006235           JUNCTION      0.00   393.57     0  04:52           0        5.81       0.135
  WS02006238           JUNCTION      0.00   305.16     0  05:22           0        3.95       0.158
  WS02006240           JUNCTION      0.00   322.96     0  03:51           0        3.95       0.238
  WS02006242           JUNCTION      0.00   334.51     0  03:51           0        3.96       0.334
  WS02006243           JUNCTION      0.00   339.13     0  03:51           0        3.95      -0.436
  WS02006245           JUNCTION      0.00   343.26     0  03:20           0        3.96       0.348
  WS02006247           JUNCTION      0.00   351.07     0  03:20           0        3.97       0.166
  WS02006248           JUNCTION      0.00   357.37     0  03:20           0        3.97       0.054
  WS02006249           JUNCTION      0.00   522.66     0  01:50           0        4.38       0.283
  WS02006239           JUNCTION      0.00   310.08     0  03:51           0        3.95       0.210
  WS02006251           JUNCTION      0.08   524.54     0  01:50     0.00217        4.43       0.195
  WS02006252           JUNCTION      0.00   399.97     0  03:20           0        3.85       0.012
  WS02006253           JUNCTION      3.66   142.87     0  01:54      0.0117       0.584       0.670
  WS02006256           JUNCTION      0.00   600.00     0  04:40           0        6.09       0.030
  WS02004138           JUNCTION      0.00   379.95     0  04:00           0         6.3       0.074
  WS02004407           JUNCTION      0.00   824.20     0  01:53           0        8.59       0.063
  WS02006228           JUNCTION      0.00   796.04     0  01:52           0        8.68       0.142
  WS02006229           JUNCTION      0.00   797.81     0  01:50           0         8.7       0.126
  WS02006280           JUNCTION      0.00   656.04     0  01:55           0         2.7       0.001
  WS02006284           JUNCTION      0.10   655.96     0  01:55      0.0027         2.7       0.039
  WS02006287           JUNCTION      0.00   655.81     0  01:54           0         2.7       0.027
  WSF200               JUNCTION      0.00   821.70     0  01:56           0        8.49       0.036
  HS02004901           JUNCTION     32.57    32.57     0  01:50       0.114       0.115       1.560
  HS02004881           JUNCTION     13.82   139.59     0  01:54      0.0479       0.529       0.051
  HS02004876           JUNCTION     24.51   126.37     0  01:54      0.0923       0.482       0.113
  HS02004870           JUNCTION     25.44   102.13     0  01:54      0.0907        0.39       0.028
  HS02004862           JUNCTION     23.11    77.53     0  01:55       0.099       0.299       0.058
  HS02004856           JUNCTION     19.02    54.51     0  01:55      0.0682       0.202       0.720
  HS02004852           JUNCTION      0.00    36.10     0  01:55           0       0.134       0.042
  HS02004848           JUNCTION     50.49    50.49     0  01:57       0.223       0.223       0.021
  HS02004842           JUNCTION      0.00    15.55     0  02:06           0       0.102      14.563
  HS02004837           JUNCTION     49.08    62.50     0  01:55       0.337       0.426       0.191
  HS02004830           JUNCTION      0.15    62.61     0  01:55     0.00423       0.416       0.297
  HS02004824           JUNCTION     60.06   122.20     0  01:58       0.286       0.702       0.077
  HS02004817           JUNCTION      0.60   124.03     0  01:59      0.0169       0.718       2.377
  HS02004807           JUNCTION     47.25   168.28     0  01:57       0.166       0.868       0.500
  HS02004802           JUNCTION      0.00   169.24     0  01:58           0       0.865       0.459
  HS02004799           JUNCTION     37.43   414.52     0  01:52       0.135        1.57       0.167
  HS02004792           JUNCTION    160.44   377.30     0  01:52       0.598        1.44       0.028
  HS02004788           JUNCTION     53.14   218.54     0  01:52        0.24       0.839       0.046
  HS02004785           JUNCTION      0.15   165.59     0  01:52     0.00423       0.601       0.083
  HS02004777           JUNCTION      0.03   165.80     0  01:51    0.000846       0.601       0.872
  HS02004770           JUNCTION    134.74   166.64     0  01:51        0.49       0.602       0.516
  HS02004480           JUNCTION      0.00   492.22     0  01:53           0        1.85       0.064
  HS02004479           JUNCTION      0.00    78.00     0  01:53           0       0.292       0.252
  HS02004478           JUNCTION      0.00   655.76     0  01:54           0         2.7       0.013
  YS02001745           JUNCTION    386.89   386.89     0  02:16        3.55        3.55       0.324
  YS02001748           JUNCTION      0.04   396.46     0  02:16     0.00127        3.54       0.652
  YS02001751           JUNCTION      0.01   396.03     0  02:16     0.00031        3.52       0.681
  YS02001754           JUNCTION      0.26   396.25     0  02:16     0.00733         3.5       0.702
  YS02001762           JUNCTION      0.00   437.00     0  02:04           0        2.39       0.882
  YS02001765           JUNCTION      0.00   437.49     0  02:04           0        2.39       1.019
  YS02001767           JUNCTION      0.54   437.39     0  02:04      0.0151        2.41       1.490
  YS02001770           JUNCTION    491.42   704.15     0  03:00        3.94        4.76       0.663
  YS02001774           JUNCTION      0.00   704.30     0  03:00           0        3.15       0.791
  YS02001779           JUNCTION      0.01   704.37     0  03:00    0.000141        3.13       0.493
  YS02001882           JUNCTION      0.00    15.56     0  01:52           0      0.0159      14.463
  YS02001884           JUNCTION      0.00    37.69     0  01:50           0       0.051      13.174
  YS02001759           JUNCTION    476.91   872.40     0  02:05        3.62        5.16       0.442
  YS02001887           JUNCTION    605.93   606.26     0  02:15        4.13        4.16       0.204
  YS02001890           JUNCTION      0.00   606.28     0  02:16           0        4.11       0.225
  YS02001898           JUNCTION      0.00   519.76     0  01:57           0           4       0.066
  YS02001901           JUNCTION      0.00   521.31     0  01:57           0           4       0.171
  YS02001904           JUNCTION      0.00   522.08     0  01:57           0           4       0.151
  YS02001907           JUNCTION      0.00  1170.34     0  01:59           0        9.13       0.262
  YS02001910           JUNCTION      0.00   653.89     0  01:59           0        5.15       0.229
  YS02001915           JUNCTION    345.21   653.72     0  01:59        2.96         5.2       0.109
  YS02001918           JUNCTION      0.00   376.34     0  01:59           0        2.27       0.062
  YS02001619           JUNCTION    336.52   336.52     0  02:16        2.95        2.95       0.413
  YS02001629           JUNCTION      0.00   224.40     0  01:47           0        1.44       2.010
  YS02001641           JUNCTION      0.00   409.71     0  01:48           0        4.85       0.430
  YS02001644           JUNCTION    367.62  1526.58     0  03:00        3.42        12.5       0.207
  YS02001652           JUNCTION      0.00   477.66     0  02:16           0        3.05       0.754
  YS02001655           JUNCTION      0.15   478.04     0  02:16     0.00434        3.07       0.825
  YS02001920           JUNCTION      2.87   376.11     0  01:59      0.0809        2.25       0.129
  YS02001923           JUNCTION      0.04   305.06     0  02:00     0.00106        2.16       0.046
  YS02001926           JUNCTION      0.05   257.57     0  01:57     0.00147        2.14       0.153
  YS02001929           JUNCTION    185.81   296.49     0  01:58        2.12        2.13       0.027
  YS02001658           JUNCTION      0.00   506.80     0  02:17           0        3.09       0.750
  YS02001661           JUNCTION      0.00   774.47     0  02:07           0        3.75       0.043
  YS02001664           JUNCTION    437.54   437.54     0  02:16         3.1        3.76       0.171
  YS02001622           JUNCTION      0.00   336.72     0  02:16           0        2.94       1.093
  YS02001633           JUNCTION    373.18   410.21     0  01:48        3.53        4.92       0.651
  YS02001649           JUNCTION      0.00   969.45     0  02:01           0        6.64       0.555
  YS02001757           JUNCTION      0.00  2140.33     0  02:04           0        10.2       0.909
  YS02001895           JUNCTION      0.00   519.35     0  01:58           0           4       0.125
  YS02001625           JUNCTION      0.00   336.59     0  02:16           0        2.91       1.364
  YS02163301           JUNCTION      0.00   223.67     0  01:48           0        1.44       1.686
  YS02163601           JUNCTION      0.11   410.24     0  01:48      0.0031        4.86       0.614
  YS02164001           JUNCTION      0.00   410.10     0  01:48           0        4.85       0.410
  YS02001647           JUNCTION      0.00   799.61     0  03:01           0         5.6       0.506
  YSB1154              JUNCTION     43.61    43.61     0  01:53       0.163       0.164       0.888
  YSB6556              JUNCTION      0.00    43.64     0  01:53           0       0.165       0.764
  YSB1174              JUNCTION     35.87    35.87     0  01:50        0.12        0.12       1.078
  YSB1171              JUNCTION      0.00    78.04     0  01:52           0       0.291       2.227
  YS02006553           JUNCTION      0.00   682.60     0  03:22           0        7.15       0.218
  YS02006561           JUNCTION      0.00  1091.49     0  01:56           0        10.9       0.005
  YS02006556           JUNCTION      0.00   682.61     0  03:22           0        7.15       0.156
  YS02006558           JUNCTION    522.52  1091.98     0  01:56        3.81        10.9       0.049
  YS02001783           JUNCTION      0.00  1066.79     0  01:56           0        10.9       0.023
  YS02001784           JUNCTION      1.06  1067.82     0  01:56      0.0299        10.9       0.037
  YS02001786           JUNCTION      0.06  1067.47     0  01:56     0.00159        10.9       0.034
  YS02001788           JUNCTION      0.07  1050.72     0  01:56       0.002        10.9       0.017
  YS02001790           JUNCTION      0.15  1039.99     0  01:56     0.00437        10.9       0.025
  YS02001791           JUNCTION      0.00  1078.06     0  01:55           0        10.9       0.008
  YS02001793           JUNCTION      0.00   981.37     0  01:55           0        10.9       0.007
  WS02004139           JUNCTION      0.32   378.83     0  04:00     0.00905         6.3       0.521
  WSC                  OUTFALL       0.00  1116.91     0  02:01           0        15.3       0.000
  3                    OUTFALL       0.00   599.91     0  01:50           0        4.22       0.000
  4                    OUTFALL       0.00   335.56     0  01:50           0       0.396       0.000
  5                    OUTFALL       0.00     0.00     0  00:00           0           0       0.000 ltr
  JK-storage           STORAGE       0.00   982.15     0  01:57           0        11.1      -6.741
  CC-storage           STORAGE       0.00  2140.66     0  02:04           0        7.75       0.838
  XR-storage           STORAGE     844.69   844.69     0  03:01        12.1        12.7      -0.004
  
  
  **********************
  Node Surcharge Summary
  **********************
  
  Surcharging occurs when water rises above the top of the highest conduit.
  ---------------------------------------------------------------------
                                               Max. Height   Min. Depth
                                   Hours       Above Crown    Below Rim
  Node                 Type      Surcharged         Meters       Meters
  ---------------------------------------------------------------------
  WS02004401           JUNCTION        0.60          0.125        1.535
  WS02004402           JUNCTION        0.63          0.127        1.613
  WS02004403           JUNCTION        0.64          0.117        1.913
  WS02004404           JUNCTION        0.76          0.168        2.612
  WS02004406           JUNCTION        0.71          0.127        2.323
  WS02004405           JUNCTION        0.74          0.154        2.646
  WS02006109           JUNCTION        1.95          0.456        1.364
  WS02006110           JUNCTION        0.83          0.214        1.636
  WS02006112           JUNCTION        0.88          0.406        1.274
  WS02006115           JUNCTION        0.23          0.072        2.178
  WS02006116           JUNCTION        0.27          0.077        2.213
  WS02006230           JUNCTION        0.74          0.597        0.973
  WS02006231           JUNCTION        0.76          0.416        1.114
  WS02006232           JUNCTION        1.84          0.523        0.957
  WS02006234           JUNCTION        0.76          0.531        0.709
  WS02006235           JUNCTION        1.02          0.487        0.803
  WS02006238           JUNCTION        1.35          0.512        0.918
  WS02006240           JUNCTION        0.64          0.841        0.549
  WS02006242           JUNCTION        0.87          0.820        0.000
  WS02006243           JUNCTION        0.40          0.770        0.000
  WS02006245           JUNCTION        0.24          0.850        0.000
  WS02006247           JUNCTION        0.25          0.760        0.000
  WS02006239           JUNCTION        0.75          0.726        0.564
  WS02006252           JUNCTION        1.66          0.192        0.908
  WS02006228           JUNCTION        1.79          0.570        1.630
  YS02001748           JUNCTION        5.99          0.662        0.528
  YS02001751           JUNCTION        6.02          1.001        0.199
  YS02001754           JUNCTION        6.04          0.872        0.278
  YS02001762           JUNCTION        6.08          1.046        0.104
  YS02001765           JUNCTION        6.08          0.997        0.103
  YS02001767           JUNCTION        6.07          0.948        0.082
  YS02001770           JUNCTION        6.07          0.896        0.024
  YS02001774           JUNCTION        6.08          0.982        0.068
  YS02001779           JUNCTION        6.04          0.680        0.000
  YS02001882           JUNCTION        1.76          0.693        0.137
  YS02001884           JUNCTION        1.80          0.718        0.152
  YS02001759           JUNCTION        6.09          1.079        0.131
  YS02001887           JUNCTION        1.88          0.780        0.170
  YS02001890           JUNCTION        1.90          0.760        0.000
  YS02001898           JUNCTION        1.72          0.551        0.189
  YS02001901           JUNCTION        1.84          0.687        0.183
  YS02001904           JUNCTION        1.82          0.646        0.204
  YS02001907           JUNCTION        2.26          0.950        0.000
  YS02001910           JUNCTION        1.95          0.957        0.143
  YS02001915           JUNCTION        1.75          0.896        0.104
  YS02001918           JUNCTION        1.52          0.810        0.000
  YS02001619           JUNCTION        6.02          0.610        0.000
  YS02001629           JUNCTION        6.02          0.470        0.000
  YS02001641           JUNCTION        6.08          0.934        0.166
  YS02001644           JUNCTION        6.08          0.920        0.000
  YS02001652           JUNCTION        6.05          1.130        0.000
  YS02001655           JUNCTION        6.02          1.200        0.000
  YS02001920           JUNCTION        1.55          1.140        0.000
  YS02001923           JUNCTION        0.01          0.800        0.020
  YS02001926           JUNCTION        0.01          0.714        0.186
  YS02001929           JUNCTION        0.01          0.780        0.000
  YS02001658           JUNCTION        6.00          1.225        0.075
  YS02001661           JUNCTION        0.21          1.390        0.000
  YS02001622           JUNCTION        6.02          0.620        0.000
  YS02001633           JUNCTION        6.08          0.925        0.135
  YS02001649           JUNCTION        6.08          1.050        0.000
  YS02001757           JUNCTION        6.12          1.181        0.029
  YS02001895           JUNCTION        1.74          0.577        0.173
  YS02001625           JUNCTION        6.05          0.780        0.000
  YS02163301           JUNCTION        6.07          0.905        0.125
  YS02163601           JUNCTION        6.09          0.990        0.090
  YS02164001           JUNCTION        6.08          0.920        0.180
  YS02001647           JUNCTION        6.05          0.806        0.094
  YS02006553           JUNCTION        2.31          1.183        0.007
  YS02006561           JUNCTION        1.62          1.150        0.000
  YS02006556           JUNCTION        2.11          1.350        0.000
  YS02006558           JUNCTION        2.09          1.400        0.000
  YS02001783           JUNCTION        2.12          1.600        0.000
  YS02001784           JUNCTION        2.19          1.490        0.000
  YS02001786           JUNCTION        2.06          1.430        0.000
  YS02001788           JUNCTION        2.05          1.480        0.000
  YS02001790           JUNCTION        2.70          1.157        0.000
  YS02001791           JUNCTION        2.73          1.702        0.218
  YS02001793           JUNCTION        2.79          1.046        1.554
  
  
  *********************
  Node Flooding Summary
  *********************
  
  Flooding refers to all water that overflows a node, whether it ponds or not.
  --------------------------------------------------------------------------
                                                             Total   Maximum
                                 Maximum   Time of Max       Flood    Ponded
                        Hours       Rate    Occurrence      Volume     Depth
  Node                 Flooded       LPS   days hr:min    10^6 ltr    Meters
  --------------------------------------------------------------------------
  WS02006242              0.01    111.97      0  01:44       0.000     0.000
  WS02006243              0.01     57.40      0  01:44       0.000     0.000
  WS02006245              0.01     45.38      0  01:45       0.000     0.000
  WS02006247              0.01     54.11      0  01:45       0.000     0.000
  YS02001779              3.53    704.36      0  03:00       3.110     0.000
  YS02001890              0.56     89.64      0  02:16       0.100     0.000
  YS02001907              1.38    650.81      0  01:59       1.980     0.000
  YS02001918              0.01     33.31      0  01:58       0.000     0.000
  YS02001619              0.01     72.93      0  01:48       0.000     0.000
  YS02001629              0.01    183.01      0  01:47       0.001     0.000
  YS02001644              5.76   1526.57      0  03:00      11.160     0.000
  YS02001652              0.01     10.22      0  02:21       0.000     0.000
  YS02001655              0.01     22.81      0  02:18       0.000     0.000
  YS02001920              0.01     23.60      0  01:58       0.000     0.000
  YS02001929              0.01     73.98      0  01:58       0.000     0.000
  YS02001661              0.01    141.54      0  02:18       0.000     0.000
  YS02001622              0.01     62.84      0  01:47       0.000     0.000
  YS02001649              0.05     41.67      0  02:18       0.002     0.000
  YS02001625              2.02    325.99      0  02:16       1.449     0.000
  YS02006561              0.01    106.06      0  01:57       0.000     0.000
  YS02006556              0.01     29.52      0  01:57       0.000     0.000
  YS02006558              0.01     17.37      0  01:57       0.000     0.000
  YS02001783              0.01     37.47      0  01:57       0.000     0.000
  YS02001784              0.01     13.14      0  01:57       0.000     0.000
  YS02001786              0.01     53.55      0  01:56       0.000     0.000
  YS02001788              0.01    164.39      0  01:56       0.000     0.000
  YS02001790              0.01    215.89      0  01:56       0.000     0.000
  JK-storage              2.58    969.69      0  02:09       5.755     0.000
  XR-storage              5.53    637.32      0  02:20       5.484     0.000
  
  
  **********************
  Storage Volume Summary
  **********************
  
  --------------------------------------------------------------------------------------------------
                         Average     Avg  Evap Exfil       Maximum     Max    Time of Max    Maximum
                          Volume    Pcnt  Pcnt  Pcnt        Volume    Pcnt     Occurrence    Outflow
  Storage Unit           1000 m3    Full  Loss  Loss       1000 m3    Full    days hr:min        LPS
  --------------------------------------------------------------------------------------------------
  JK-storage               0.153      53     0     0         0.291     100       0  01:57     600.00
  CC-storage               3.314      21     0     0         4.019      26       0  03:01     399.97
  XR-storage               0.863      93     0     0         0.926     100       0  02:10     379.95
  
  
  ***********************
  Outfall Loading Summary
  ***********************
  
  -----------------------------------------------------------
                         Flow       Avg       Max       Total
                         Freq      Flow      Flow      Volume
  Outfall Node           Pcnt       LPS       LPS    10^6 ltr
  -----------------------------------------------------------
  WSC                  100.00    585.03   1116.91      15.287
  3                     85.63    244.44    599.91       4.218
  4                     30.53     69.31    335.56       0.396
  5                      0.00      0.00      0.00       0.000
  -----------------------------------------------------------
  System                54.04    898.79   1795.61      19.902
  
  
  ********************
  Link Flow Summary
  ********************
  
  -----------------------------------------------------------------------------
                                 Maximum  Time of Max   Maximum    Max/    Max/
                                  |Flow|   Occurrence   |Veloc|    Full    Full
  Link                 Type          LPS  days hr:min     m/sec    Flow   Depth
  -----------------------------------------------------------------------------
  WS02003066WSF200     CONDUIT    821.70     0  01:56      2.97    0.14    0.29
  WS02006287WS02006284 CONDUIT    655.86     0  01:55      2.36    0.30    0.38
  WS02006284WS02006280 CONDUIT    656.04     0  01:55      2.59    0.27    0.36
  WS02006280WS02006229 CONDUIT    656.05     0  01:55      4.21    0.14    0.26
  WS02006229WS02006228 CONDUIT    796.04     0  01:52      1.58    2.64    1.00
  WS02006256WS02006235 CONDUIT    145.15     0  03:40      2.05    1.54    1.00
  WS02006253WS02006251 CONDUIT    154.69     0  01:55      0.59    0.46    1.00
  WS02006252WS02006251 CONDUIT    400.03     0  01:50      3.18    1.47    1.00
  WS02006251WS02006249 CONDUIT    522.66     0  01:50      1.36    1.51    1.00
  WS02006249WS02006248 CONDUIT    357.37     0  03:20      1.16    1.96    0.99
  WS02006248WS02006247 CONDUIT    351.07     0  03:20      1.12    0.76    1.00
  WS02006247WS02006245 CONDUIT    343.26     0  03:20      1.08    2.72    1.00
  WS02006245WS02006243 CONDUIT    339.13     0  03:51      1.09    1.00    1.00
  WS02006243WS02006242 CONDUIT    334.51     0  03:51      1.00    0.71    1.00
  WS02006242WS02006240 CONDUIT    322.96     0  03:51      0.94    1.28    1.00
  WS02006240WS02006239 CONDUIT    310.08     0  03:51      0.98    0.98    1.00
  WS02006239WS02006238 CONDUIT    305.16     0  05:22      0.88    0.98    1.00
  WS02006238WS02006235 CONDUIT    305.14     0  05:22      0.84    0.68    1.00
  WS02006235WS02006234 CONDUIT    390.04     0  04:52      1.05    4.12    1.00
  WS02006234WS02006232 CONDUIT    388.34     0  06:12      1.01    0.79    1.00
  WS02006232WS02006231 CONDUIT    388.17     0  06:12      1.07    0.81    1.00
  WS02006231WS02006230 CONDUIT    386.34     0  06:12      1.35    5.86    1.00
  WS02006230WS02006229 CONDUIT    395.87     0  06:13      1.03    8.81    1.00
  WS02006228WS02006109 CONDUIT    796.04     0  01:52      1.58    3.48    1.00
  WS02006116WS02004401 CONDUIT    823.89     0  01:53      1.05    1.14    1.00
  WS02006115WS02006116 CONDUIT    823.75     0  01:53      1.05    1.06    1.00
  WS02006113WS02006111 CONDUIT    797.35     0  01:53      2.68    0.96    0.79
  WS02006112WS02006115 CONDUIT    823.76     0  01:53      1.05    0.49    1.00
  WS02006111WS02006112 CONDUIT    797.73     0  01:53      1.82    0.38    0.89
  WS02006110WS02006113 CONDUIT    797.27     0  01:52      1.72    0.73    0.89
  WS02006109WS02006110 CONDUIT    797.27     0  01:52      1.59    1.53    1.00
  WS02004411WS02004412 CONDUIT    821.70     0  01:55      1.24    1.17    0.85
  WS02004401WS02004402 CONDUIT    823.82     0  01:53      1.05    0.99    1.00
  WS02004413WS02003067 CONDUIT    821.71     0  01:55      1.41    0.35    0.69
  WS02004412WS02004413 CONDUIT    821.73     0  01:55      1.09    0.55    0.91
  WS02004410WS02004411 CONDUIT    821.92     0  01:54      1.15    1.12    0.86
  WS02004409WS02004410 CONDUIT    822.47     0  01:54      1.17    1.06    0.86
  WS02004407WS02004409 CONDUIT    823.92     0  01:53      1.73    0.29    0.62
  WS02004406WS02004407 CONDUIT    824.20     0  01:53      1.44    0.37    0.69
  WS02004405WS02004406 CONDUIT    823.95     0  01:53      1.05    1.63    1.00
  WS02004404WS02004405 CONDUIT    823.88     0  01:53      1.05    8.07    1.00
  WS02004403WS02004404 CONDUIT    823.72     0  01:53      1.05    0.60    1.00
  WS02004402WS02004403 CONDUIT    823.77     0  01:53      1.05    1.18    1.00
  WS02004139WS02001211 CONDUIT    365.65     0  04:00      0.81    0.46    0.57
  WS02004138WS02004139 CONDUIT    378.50     0  04:00      3.34    0.08    0.41
  WS02003067WS02003066 CONDUIT    821.76     0  01:55      1.53    0.26    0.48
  WS02001213WS02003059 CONDUIT    349.96     0  04:02      0.78    0.58    0.80
  WS02001212WS02001213 CONDUIT    355.85     0  04:01      1.19    0.55    0.48
  WS02001211WS02001212 CONDUIT    361.54     0  04:01      0.74    0.28    0.63
  WS02003072WS02003073 CONDUIT   1114.89     0  02:00      1.84    2.41    0.53
  WS02003069WS02003072 CONDUIT   1114.84     0  02:00      1.71    0.54    0.56
  WS02003060WS02003069 CONDUIT   1114.60     0  01:59      1.94    0.44    0.51
  WS02003059WS02003060 CONDUIT    344.17     0  04:02      0.82    0.22    0.70
  HS02004901HS02004770 CONDUIT     31.96     0  01:52      0.09    0.12    0.51
  HS02004876HS02004881 CONDUIT    126.38     0  01:55      1.20    1.34    0.15
  HS02004870HS02004876 CONDUIT    102.10     0  01:55      0.82    0.07    0.18
  HS02004842HS02004848 CONDUIT     15.55     0  02:06      0.07    0.01    0.33
  HS02004837HS02004842 CONDUIT     15.96     0  02:07      0.42    0.01    0.35
  HS02004830HS02004837 CONDUIT     62.46     0  01:55      0.66    0.06    0.14
  HS02004824HS02004830 CONDUIT     62.57     0  01:56      0.62    0.08    0.16
  HS02004817HS02004824 CONDUIT    123.43     0  01:59      0.31    0.06    0.58
  HS02004770HS02004777 CONDUIT    165.77     0  01:51      0.46    0.30    0.52
  HS02004799HS02004480 CONDUIT    414.30     0  01:53      1.02    0.52    0.58
  HS02004792HS02004799 CONDUIT    377.20     0  01:52      1.15    0.23    0.47
  HS02004788HS02004792 CONDUIT    218.44     0  01:53      1.24    0.14    0.25
  HS02004785HS02004788 CONDUIT    165.54     0  01:53      0.86    1.25    0.27
  HS02004777HS02004785 CONDUIT    165.44     0  01:52      0.54    0.20    0.44
  HS02004480HS02004478 CONDUIT    492.13     0  01:53      1.52    2.07    0.46
  HS02004479HS02004480 CONDUIT     78.31     0  01:54      0.27    0.08    0.55
  HS02004862HS02004870 CONDUIT     77.52     0  01:55      0.79    0.08    0.14
  HS02004848HS02004852 CONDUIT     36.10     0  01:55      0.52    0.04    0.10
  HS02004856HS02004862 CONDUIT     54.46     0  01:55      0.59    0.05    0.13
  HS02004852HS02004856 CONDUIT     36.15     0  01:56      0.33    0.04    0.16
  HS02004802HS02004478 CONDUIT    170.22     0  01:58      0.53    0.15    0.47
  HS02004478WS02006287 CONDUIT    655.81     0  01:54      2.08    0.18    0.35
  HS02004817HS02004807 CONDUIT    125.36     0  01:59      0.24    0.07    0.75
  HS02004807HS02004802 CONDUIT    169.24     0  01:58      0.47    0.32    0.53
  YS02001759YS02001757 CONDUIT    872.48     0  02:05      1.11    0.62    1.00
  YS02001762YS02001759 CONDUIT    436.84     0  02:04      0.56    0.50    1.00
  YS02001765YS02001762 CONDUIT    437.00     0  02:04      0.56    0.41    1.00
  YS02001770YS02001767 CONDUIT    436.85     0  02:04      0.56    1.73    1.00
  YS02001774YS02001770 CONDUIT    704.30     0  03:00      0.90    0.45    1.00
  YS02001779YS02001774 CONDUIT    704.37     0  03:00      0.90    0.35    1.00
  YS02001649YS02001757 CONDUIT    969.73     0  02:02      1.23    0.59    1.00
  YS02001767YS02001765 CONDUIT    437.49     0  02:04      0.56    0.55    1.00
  YS02006561YS02001783 CONDUIT   1066.79     0  01:56      2.26    0.55    1.00
  YS02001783YS02001784 CONDUIT   1066.76     0  01:56      2.12    1.47    1.00
  YS02001784YS02001785 CONDUIT   1067.41     0  01:56      2.13    2.48    1.00
  YS02001788YS02001790 CONDUIT   1039.83     0  01:56      2.57    0.77    1.00
  YS02001790YS02001791 CONDUIT   1078.06     0  01:55      3.20    1.17    1.00
  YS02001791YS02001793 CONDUIT    981.37     0  01:55      6.09    0.42    1.00
  YS02001910YS02001907 CONDUIT    653.81     0  01:59      0.83    0.37    1.00
  YS02001786YS02001788 CONDUIT   1050.65     0  01:56      2.35    2.02    1.00
  YS02001915YS02001910 CONDUIT    653.89     0  01:59      0.83    0.32    1.00
  YS02001918YS02001915 CONDUIT    376.75     0  01:59      0.48    0.21    1.00
  YS02001923YS02001920 CONDUIT    373.24     0  01:59      0.79    0.17    1.00
  YS02001926YS02001923 CONDUIT    305.02     0  02:00      0.87    0.44    1.00
  YS02001929YS02001926 CONDUIT    248.84     0  01:59      0.93    0.12    1.00
  YS02001920YS02001918 CONDUIT    376.34     0  01:59      0.76    0.36    1.00
  YS02001629YS02163301 CONDUIT    223.67     0  01:48      0.28    0.28    1.00
  YS02001619YS02001622 CONDUIT    336.72     0  02:16      0.76    0.50    1.00
  YS02001622YS02001625 CONDUIT    336.59     0  02:16      0.43    0.18    1.00
  YS02001625YS02001629 CONDUIT    208.50     0  01:47      0.31    0.10    1.00
  YS02163301YS02001633 CONDUIT    223.55     0  01:48      0.28    0.21    1.00
  YS02163601YS02164001 CONDUIT    410.10     0  01:48      0.52    0.36    1.00
  YS02164001YS02001641 CONDUIT    409.71     0  01:48      0.52    0.56    1.00
  YS02001641YS02001644 CONDUIT    409.50     0  01:48      0.52    1.32    1.00
  YS02001647YS02001649 CONDUIT    799.61     0  03:01      1.02    0.42    1.00
  YS02006553YS02006556 CONDUIT    682.61     0  03:22      0.87    0.58    1.00
  YS02006556YS02006558 CONDUIT    682.67     0  03:22      0.87    0.54    1.00
  YSB6556YSB1171       CONDUIT     43.98     0  01:54      0.13    0.05    0.82
  YS02001907YS02006553 CONDUIT    682.60     0  03:22      0.76    0.80    1.00
  YS02006558YS02006561 CONDUIT   1091.49     0  01:56      3.86    2.41    1.00
  YS02001633YS02163601 CONDUIT    410.13     0  01:48      0.52    0.43    1.00
  YS02001644YS02001647 CONDUIT    799.76     0  03:01      1.02    0.47    1.00
  YS02001745YS02001748 CONDUIT    396.41     0  02:16      1.73    0.15    0.98
  YS02001748YS02001751 CONDUIT    396.02     0  02:16      1.25    0.20    1.00
  YS02001751YS02001754 CONDUIT    395.99     0  02:16      1.03    0.19    1.00
  YS02001754YS02001757 CONDUIT    396.10     0  02:16      0.50    0.16    1.00
  YS02001882YS02001884 CONDUIT     15.56     0  01:52      0.12    0.02    1.00
  YS02001884YS02001887 CONDUIT     37.69     0  01:50      0.09    0.05    1.00
  YS02001890YS02001895 CONDUIT    519.35     0  01:58      0.66    0.24    1.00
  YS02001895YS02001898 CONDUIT    519.76     0  01:57      0.66    0.90    1.00
  YS02001898YS02001901 CONDUIT    521.31     0  01:57      0.66    0.34    1.00
  YS02001901YS02001904 CONDUIT    522.08     0  01:57      0.66    0.81    1.00
  YS02001904YS02001907 CONDUIT    523.15     0  01:57      0.67    0.18    1.00
  YS02001887YS02001890 CONDUIT    606.28     0  02:16      0.77    1.04    1.00
  YS02001652YS02001649 CONDUIT    477.81     0  02:16      0.61    0.24    1.00
  YS02001655YS02001652 CONDUIT    477.66     0  02:16      1.09    0.23    1.00
  YS02001658YS02001655 CONDUIT    477.88     0  02:16      1.45    0.20    1.00
  YS02001661YS02001658 CONDUIT    506.80     0  02:17      1.85    0.20    1.00
  YS02001664YS02001661 CONDUIT    774.47     0  02:07      1.75    0.24    0.77
  YSB1154YSB6556       CONDUIT     43.64     0  01:53      0.18    0.08    0.72
  YSB1174YSB1171       CONDUIT     35.15     0  01:50      0.10    0.05    0.83
  YSB1171HS02004479    CONDUIT     78.00     0  01:53      0.54    0.05    0.67
  HS02004881HS02006253 CONDUIT    139.58     0  01:55      2.11    0.03    0.39
  YS02001793JiankangQianchi CONDUIT    982.15     0  01:57     11.97    0.08    1.00
  YS02001757CaochengTiaoxuchi CONDUIT   2140.66     0  02:04      3.79    0.94    1.00
  WSF200WS02003060     CONDUIT    820.98     0  01:56      1.99    0.18    0.40
  1                    CONDUIT   1116.91     0  02:01      3.43    0.39    0.43
  2                    CONDUIT    335.56     0  01:50      6.57    0.80    0.68
  3                    CONDUIT    599.91     0  01:50     10.04    0.96    0.79
  4                    CONDUIT      0.00     0  00:00      0.00    0.00    0.00
  CC-Pump-1            PUMP       200.00     0  04:50              1.00
  CC-Pump-2            PUMP       200.00     0  01:40              1.00
  JK-Pump-1            PUMP       300.00     0  04:40              1.00
  JK-Pump-2            PUMP       300.00     0  01:40              1.00
  XR-Pump-1            PUMP        95.00     0  00:00              1.00
  XR-Pump-2            PUMP        95.00     0  00:00              1.00
  XR-Pump-3            PUMP        95.00     0  00:00              1.00
  XR-Pump-4            PUMP        95.00     0  04:00              1.00
  
  
  ***************************
  Flow Classification Summary
  ***************************
  
  -------------------------------------------------------------------------------------
                      Adjusted    ---------- Fraction of Time in Flow Class ---------- 
                       /Actual         Up    Down  Sub   Sup   Up    Down  Norm  Inlet 
  Conduit               Length    Dry  Dry   Dry   Crit  Crit  Crit  Crit  Ltd   Ctrl  
  -------------------------------------------------------------------------------------
  WS02003066WSF200        1.00   0.06  0.00  0.00  0.00  0.94  0.00  0.00  0.65  0.00
  WS02006287WS02006284    1.00   0.02  0.01  0.00  0.64  0.33  0.00  0.00  0.65  0.00
  WS02006284WS02006280    1.00   0.02  0.00  0.00  0.00  0.00  0.00  0.98  0.00  0.00
  WS02006280WS02006229    1.00   0.02  0.00  0.00  0.00  0.02  0.00  0.96  0.00  0.00
  WS02006229WS02006228    1.00   0.00  0.00  0.00  1.00  0.00  0.00  0.00  0.00  0.00
  WS02006256WS02006235    1.00   0.03  0.00  0.00  0.97  0.00  0.00  0.00  0.00  0.00
  WS02006253WS02006251    1.00   0.01  0.01  0.00  0.98  0.00  0.00  0.00  0.00  0.00
  WS02006252WS02006251    1.00   0.04  0.00  0.00  0.00  0.00  0.96  0.00  0.00  0.00
  WS02006251WS02006249    1.00   0.00  0.00  0.00  1.00  0.00  0.00  0.00  0.20  0.00
  WS02006249WS02006248    1.00   0.00  0.00  0.00  0.92  0.00  0.08  0.00  0.00  0.00
  WS02006248WS02006247    1.00   0.00  0.00  0.00  0.99  0.00  0.00  0.01  0.09  0.00
  WS02006247WS02006245    1.00   0.00  0.00  0.00  0.98  0.00  0.00  0.02  0.00  0.00
  WS02006245WS02006243    1.00   0.01  0.00  0.00  0.96  0.00  0.00  0.03  0.00  0.00
  WS02006243WS02006242    1.00   0.01  0.00  0.00  0.97  0.00  0.00  0.03  0.05  0.00
  WS02006242WS02006240    1.00   0.01  0.02  0.00  0.96  0.00  0.01  0.00  0.00  0.00
  WS02006240WS02006239    1.00   0.03  0.00  0.00  0.96  0.00  0.00  0.01  0.00  0.00
  WS02006239WS02006238    1.00   0.03  0.00  0.00  0.96  0.00  0.00  0.01  0.00  0.00
  WS02006238WS02006235    1.00   0.03  0.00  0.00  0.97  0.00  0.00  0.00  0.00  0.00
  WS02006235WS02006234    1.00   0.03  0.00  0.00  0.96  0.00  0.00  0.00  0.00  0.00
  WS02006234WS02006232    1.00   0.03  0.00  0.00  0.96  0.00  0.00  0.00  0.00  0.00
  WS02006232WS02006231    1.00   0.04  0.00  0.00  0.96  0.00  0.00  0.00  0.00  0.00
  WS02006231WS02006230    1.00   0.03  0.00  0.00  0.62  0.00  0.35  0.00  0.00  0.00
  WS02006230WS02006229    1.00   0.00  0.00  0.00  0.99  0.00  0.00  0.01  0.00  0.00
  WS02006228WS02006109    1.00   0.00  0.00  0.00  1.00  0.00  0.00  0.00  0.01  0.00
  WS02006116WS02004401    1.00   0.02  0.00  0.00  0.98  0.00  0.00  0.00  0.00  0.00
  WS02006115WS02006116    1.00   0.02  0.00  0.00  0.96  0.00  0.00  0.02  0.00  0.00
  WS02006113WS02006111    1.00   0.01  0.00  0.00  0.05  0.94  0.00  0.00  0.12  0.00
  WS02006112WS02006115    1.00   0.01  0.01  0.00  0.98  0.00  0.00  0.00  0.00  0.00
  WS02006111WS02006112    1.00   0.01  0.00  0.00  0.99  0.00  0.00  0.00  0.83  0.00
  WS02006110WS02006113    1.00   0.00  0.01  0.00  0.99  0.00  0.00  0.00  0.00  0.00
  WS02006109WS02006110    1.00   0.00  0.00  0.00  1.00  0.00  0.00  0.00  0.00  0.00
  WS02004411WS02004412    1.00   0.04  0.00  0.00  0.96  0.00  0.00  0.00  0.00  0.00
  WS02004401WS02004402    1.00   0.02  0.00  0.00  0.98  0.00  0.00  0.00  0.04  0.00
  WS02004413WS02003067    1.00   0.05  0.01  0.00  0.00  0.00  0.94  0.00  0.00  0.00
  WS02004412WS02004413    1.00   0.04  0.00  0.00  0.95  0.00  0.00  0.00  0.00  0.00
  WS02004410WS02004411    1.00   0.04  0.00  0.00  0.96  0.00  0.00  0.00  0.00  0.00
  WS02004409WS02004410    1.00   0.04  0.00  0.00  0.96  0.00  0.00  0.00  0.00  0.00
  WS02004407WS02004409    1.00   0.04  0.00  0.00  0.94  0.02  0.00  0.00  0.78  0.00
  WS02004406WS02004407    1.00   0.00  0.04  0.00  0.96  0.00  0.00  0.00  0.00  0.00
  WS02004405WS02004406    1.00   0.00  0.00  0.00  1.00  0.00  0.00  0.00  0.04  0.00
  WS02004404WS02004405    1.00   0.00  0.00  0.00  1.00  0.00  0.00  0.00  0.00  0.00
  WS02004403WS02004404    1.00   0.00  0.02  0.00  0.98  0.00  0.00  0.00  0.04  0.00
  WS02004402WS02004403    1.00   0.02  0.00  0.00  0.98  0.00  0.00  0.00  0.00  0.00
  WS02004139WS02001211    1.00   0.00  0.00  0.00  1.00  0.00  0.00  0.00  0.00  0.00
  WS02004138WS02004139    1.00   0.00  0.00  0.00  1.00  0.00  0.00  0.00  1.00  0.00
  WS02003067WS02003066    1.00   0.06  0.00  0.00  0.94  0.00  0.00  0.00  0.00  0.00
  WS02001213WS02003059    1.00   0.00  0.00  0.00  1.00  0.00  0.00  0.00  0.00  0.00
  WS02001212WS02001213    1.00   0.00  0.00  0.00  0.87  0.00  0.13  0.00  0.00  0.00
  WS02001211WS02001212    1.00   0.00  0.00  0.00  1.00  0.00  0.00  0.00  0.00  0.00
  WS02003072WS02003073    1.00   0.00  0.00  0.00  0.00  0.00  0.00  1.00  0.00  0.00
  WS02003069WS02003072    1.00   0.00  0.00  0.00  1.00  0.00  0.00  0.00  0.24  0.00
  WS02003060WS02003069    1.00   0.00  0.00  0.00  0.99  0.01  0.00  0.00  0.04  0.00
  WS02003059WS02003060    1.00   0.00  0.00  0.00  1.00  0.00  0.00  0.00  0.01  0.00
  HS02004901HS02004770    1.00   0.02  0.00  0.00  0.98  0.00  0.00  0.00  0.00  0.00
  HS02004876HS02004881    1.00   0.00  0.00  0.00  0.86  0.14  0.00  0.00  0.00  0.00
  HS02004870HS02004876    1.00   0.00  0.00  0.00  1.00  0.00  0.00  0.00  0.95  0.00
  HS02004842HS02004848    1.00   0.00  0.02  0.00  0.98  0.00  0.00  0.00  0.57  0.00
  HS02004837HS02004842    1.00   0.00  0.00  0.00  1.00  0.00  0.00  0.00  0.11  0.00
  HS02004830HS02004837    1.00   0.00  0.00  0.00  1.00  0.00  0.00  0.00  0.99  0.00
  HS02004824HS02004830    1.00   0.00  0.00  0.00  1.00  0.00  0.00  0.00  0.03  0.00
  HS02004817HS02004824    1.00   0.00  0.00  0.00  1.00  0.00  0.00  0.00  0.94  0.00
  HS02004770HS02004777    1.00   0.00  0.02  0.00  0.98  0.00  0.00  0.00  0.03  0.00
  HS02004799HS02004480    1.00   0.00  0.01  0.00  0.97  0.00  0.02  0.00  0.00  0.00
  HS02004792HS02004799    1.00   0.00  0.00  0.00  1.00  0.00  0.00  0.00  0.98  0.00
  HS02004788HS02004792    1.00   0.00  0.00  0.00  1.00  0.00  0.00  0.00  0.98  0.00
  HS02004785HS02004788    1.00   0.00  0.00  0.00  1.00  0.00  0.00  0.00  0.00  0.00
  HS02004777HS02004785    1.00   0.00  0.00  0.00  1.00  0.00  0.00  0.00  0.13  0.00
  HS02004480HS02004478    1.00   0.02  0.00  0.00  0.71  0.00  0.00  0.27  0.00  0.00
  HS02004479HS02004480    1.00   0.01  0.00  0.00  0.99  0.00  0.00  0.00  0.12  0.00
  HS02004862HS02004870    1.00   0.00  0.00  0.00  1.00  0.00  0.00  0.00  0.04  0.00
  HS02004848HS02004852    1.00   0.02  0.00  0.00  0.98  0.00  0.00  0.00  0.78  0.00
  HS02004856HS02004862    1.00   0.00  0.03  0.00  0.97  0.00  0.00  0.00  0.82  0.00
  HS02004852HS02004856    1.00   0.02  0.00  0.00  0.98  0.00  0.00  0.00  0.77  0.00
  HS02004802HS02004478    1.00   0.02  0.00  0.00  0.98  0.00  0.00  0.00  0.03  0.00
  HS02004478WS02006287    1.00   0.03  0.00  0.00  0.76  0.21  0.00  0.00  0.62  0.00
  HS02004817HS02004807    1.00   0.00  0.02  0.00  0.98  0.00  0.00  0.00  0.01  0.00
  HS02004807HS02004802    1.00   0.02  0.00  0.00  0.97  0.00  0.00  0.00  0.00  0.00
  YS02001759YS02001757    1.00   0.00  0.00  0.00  1.00  0.00  0.00  0.00  0.16  0.00
  YS02001762YS02001759    1.00   0.00  0.00  0.00  1.00  0.00  0.00  0.00  0.03  0.00
  YS02001765YS02001762    1.00   0.00  0.00  0.00  1.00  0.00  0.00  0.00  0.14  0.00
  YS02001770YS02001767    1.00   0.00  0.00  0.00  1.00  0.00  0.00  0.00  0.00  0.00
  YS02001774YS02001770    1.00   0.00  0.02  0.00  0.98  0.00  0.00  0.00  0.03  0.00
  YS02001779YS02001774    1.00   0.00  0.00  0.00  1.00  0.00  0.00  0.00  0.18  0.00
  YS02001649YS02001757    1.00   0.00  0.00  0.00  1.00  0.00  0.00  0.00  0.16  0.00
  YS02001767YS02001765    1.00   0.00  0.00  0.00  1.00  0.00  0.00  0.00  0.00  0.00
  YS02006561YS02001783    1.00   0.03  0.00  0.00  0.41  0.56  0.00  0.00  0.50  0.00
  YS02001783YS02001784    1.00   0.00  0.03  0.00  0.97  0.00  0.00  0.00  0.00  0.00
  YS02001784YS02001785    1.00   0.00  0.00  0.00  1.00  0.00  0.00  0.00  0.17  0.00
  YS02001788YS02001790    1.00   0.00  0.00  0.00  0.42  0.58  0.00  0.00  0.43  0.00
  YS02001790YS02001791    1.00   0.00  0.00  0.00  0.39  0.61  0.00  0.00  0.42  0.00
  YS02001791YS02001793    1.00   0.00  0.00  0.00  0.40  0.60  0.00  0.00  0.01  0.00
  YS02001910YS02001907    1.00   0.00  0.00  0.00  1.00  0.00  0.00  0.00  0.12  0.00
  YS02001786YS02001788    1.00   0.00  0.00  0.00  0.42  0.58  0.00  0.00  0.00  0.00
  YS02001915YS02001910    1.00   0.00  0.00  0.00  0.99  0.01  0.00  0.00  0.16  0.00
  YS02001918YS02001915    1.00   0.00  0.00  0.00  1.00  0.00  0.00  0.00  0.52  0.00
  YS02001923YS02001920    1.00   0.00  0.00  0.00  1.00  0.00  0.00  0.00  0.74  0.00
  YS02001926YS02001923    1.00   0.00  0.01  0.00  0.22  0.00  0.76  0.00  0.00  0.00
  YS02001929YS02001926    1.00   0.00  0.02  0.00  0.98  0.00  0.00  0.00  0.66  0.00
  YS02001920YS02001918    1.00   0.00  0.00  0.00  1.00  0.00  0.00  0.00  0.00  0.00
  YS02001629YS02163301    1.00   0.03  0.00  0.00  0.97  0.00  0.00  0.00  0.00  0.00
  YS02001619YS02001622    1.00   0.02  0.00  0.00  0.98  0.00  0.00  0.00  0.00  0.00
  YS02001622YS02001625    1.00   0.02  0.00  0.00  0.98  0.00  0.00  0.00  0.05  0.00
  YS02001625YS02001629    1.00   0.02  0.01  0.00  0.96  0.00  0.01  0.00  0.00  0.00
  YS02163301YS02001633    1.00   0.00  0.03  0.00  0.97  0.00  0.00  0.00  0.00  0.00
  YS02163601YS02164001    1.00   0.00  0.01  0.00  0.99  0.00  0.00  0.00  0.00  0.00
  YS02164001YS02001641    1.00   0.00  0.01  0.00  0.99  0.00  0.00  0.00  0.06  0.00
  YS02001641YS02001644    1.00   0.00  0.00  0.00  1.00  0.00  0.00  0.00  0.00  0.00
  YS02001647YS02001649    1.00   0.00  0.03  0.00  0.97  0.00  0.00  0.00  0.01  0.00
  YS02006553YS02006556    1.00   0.00  0.00  0.00  1.00  0.00  0.00  0.00  0.03  0.00
  YS02006556YS02006558    1.00   0.00  0.00  0.00  1.00  0.00  0.00  0.00  0.00  0.00
  YSB6556YSB1171          1.00   0.01  0.01  0.00  0.98  0.00  0.00  0.00  0.00  0.00
  YS02001907YS02006553    1.00   0.00  0.00  0.00  1.00  0.00  0.00  0.00  0.00  0.00
  YS02006558YS02006561    1.00   0.03  0.00  0.00  0.24  0.73  0.00  0.00  0.42  0.00
  YS02001633YS02163601    1.00   0.00  0.00  0.00  1.00  0.00  0.00  0.00  0.15  0.00
  YS02001644YS02001647    1.00   0.00  0.03  0.00  0.97  0.00  0.00  0.00  0.00  0.00
  YS02001745YS02001748    1.00   0.00  0.00  0.00  0.94  0.00  0.00  0.06  0.01  0.00
  YS02001748YS02001751    1.00   0.00  0.00  0.00  0.98  0.02  0.00  0.00  0.14  0.00
  YS02001751YS02001754    1.00   0.00  0.00  0.00  0.96  0.00  0.00  0.03  0.01  0.00
  YS02001754YS02001757    1.00   0.00  0.00  0.00  1.00  0.00  0.00  0.00  0.18  0.00
  YS02001882YS02001884    1.00   0.03  0.00  0.00  0.97  0.00  0.00  0.00  0.00  0.00
  YS02001884YS02001887    1.00   0.01  0.01  0.00  0.98  0.00  0.00  0.00  0.00  0.00
  YS02001890YS02001895    1.00   0.00  0.03  0.00  0.97  0.00  0.00  0.00  0.00  0.00
  YS02001895YS02001898    1.00   0.03  0.00  0.00  0.97  0.00  0.01  0.00  0.00  0.00
  YS02001898YS02001901    1.00   0.03  0.00  0.00  0.97  0.00  0.00  0.00  0.01  0.00
  YS02001901YS02001904    1.00   0.03  0.00  0.00  0.97  0.00  0.00  0.00  0.00  0.00
  YS02001904YS02001907    1.00   0.00  0.03  0.00  0.97  0.00  0.00  0.00  0.00  0.00
  YS02001887YS02001890    1.00   0.00  0.00  0.00  0.99  0.00  0.00  0.00  0.00  0.00
  YS02001652YS02001649    1.00   0.00  0.00  0.00  1.00  0.00  0.00  0.00  0.16  0.00
  YS02001655YS02001652    1.00   0.00  0.00  0.00  0.96  0.00  0.00  0.03  0.01  0.00
  YS02001658YS02001655    1.00   0.00  0.02  0.00  0.95  0.02  0.00  0.00  0.02  0.00
  YS02001661YS02001658    1.00   0.02  0.00  0.00  0.93  0.04  0.00  0.00  0.00  0.00
  YS02001664YS02001661    1.00   0.02  0.00  0.00  0.94  0.04  0.00  0.00  0.10  0.00
  YSB1154YSB6556          1.00   0.02  0.00  0.00  0.98  0.00  0.00  0.00  0.02  0.00
  YSB1174YSB1171          1.00   0.01  0.01  0.00  0.98  0.00  0.00  0.00  0.00  0.00
  YSB1171HS02004479       1.00   0.01  0.00  0.00  0.99  0.00  0.00  0.00  0.11  0.00
  HS02004881HS02006253    1.00   0.01  0.00  0.00  0.66  0.06  0.00  0.27  0.55  0.00
  YS02001793JiankangQianchi    1.00   0.00  0.00  0.00  0.70  0.30  0.00  0.00  0.39  0.00
  YS02001757CaochengTiaoxuchi    1.00   0.00  0.04  0.00  0.91  0.05  0.00  0.00  0.00  0.00
  WSF200WS02003060        1.00   0.00  0.06  0.00  0.53  0.41  0.00  0.00  0.10  0.00
  1                       1.00   0.00  0.00  0.00  0.00  1.00  0.00  0.00  0.41  0.00
  2                       1.00   0.69  0.00  0.00  0.00  0.31  0.00  0.00  0.09  0.00
  3                       1.00   0.14  0.00  0.00  0.00  0.86  0.00  0.00  0.02  0.00
  4                       1.00   1.00  0.00  0.00  0.00  0.00  0.00  0.00  0.00  0.00
  
  
  *************************
  Conduit Surcharge Summary
  *************************
  
  ----------------------------------------------------------------------------
                                                           Hours        Hours 
                         --------- Hours Full --------   Above Full   Capacity
  Conduit                Both Ends  Upstream  Dnstream   Normal Flow   Limited
  ----------------------------------------------------------------------------
  WS02006229WS02006228        1.79      2.08      1.79      4.32         1.78
  WS02006256WS02006235        6.05      6.05      6.32      3.36         0.01
  WS02006253WS02006251        0.12      0.12      0.19      0.01         0.01
  WS02006252WS02006251        0.59      0.59      1.66      1.38         0.01
  WS02006251WS02006249        0.02      0.14      0.02      0.75         0.02
  WS02006249WS02006248        0.01      0.01      0.02      3.30         0.01
  WS02006248WS02006247        0.02      0.02      0.25      0.01         0.01
  WS02006247WS02006245        0.24      0.29      0.24      4.45         0.23
  WS02006245WS02006243        0.28      0.28      0.40      0.01         0.01
  WS02006243WS02006242        0.42      0.42      0.87      0.01         0.01
  WS02006242WS02006240        0.64      0.64      1.31      1.28         0.01
  WS02006240WS02006239        0.67      0.67      0.75      0.01         0.01
  WS02006239WS02006238        1.19      1.19      1.35      0.01         0.01
  WS02006238WS02006235        1.18      1.18      1.72      0.01         0.01
  WS02006235WS02006234        0.76      0.76      1.02      5.97         0.04
  WS02006234WS02006232        0.79      0.79      1.83      0.01         0.01
  WS02006232WS02006231        0.76      0.76      1.83      0.01         0.01
  WS02006231WS02006230        0.74      0.74      0.76      6.04         0.02
  WS02006230WS02006229        3.01      3.96      3.01      6.23         2.98
  WS02006228WS02006109        1.94      2.56      1.94      5.68         1.94
  WS02006116WS02004401        0.59      0.59      0.60      0.36         0.36
  WS02006115WS02006116        0.25      0.26      0.27      0.19         0.18
  WS02006112WS02006115        0.23      0.23      0.88      0.01         0.01
  WS02006111WS02006112        0.01      0.01      4.68      0.01         0.01
  WS02006110WS02006113        0.01      0.01      2.32      0.01         0.01
  WS02006109WS02006110        0.83      0.83      2.57      0.83         0.01
  WS02004411WS02004412        0.01      0.01      0.01      0.53         0.01
  WS02004401WS02004402        0.60      0.60      0.63      0.01         0.02
  WS02004410WS02004411        0.01      0.01      0.01      0.31         0.01
  WS02004409WS02004410        0.01      0.01      0.01      0.20         0.01
  WS02004406WS02004407        0.01      0.01      0.71      0.01         0.01
  WS02004405WS02004406        0.71      0.74      0.71      0.86         0.71
  WS02004404WS02004405        0.74      0.76      0.74      6.20         0.74
  WS02004403WS02004404        0.64      0.64      0.76      0.01         0.01
  WS02004402WS02004403        0.63      0.63      0.64      0.59         0.56
  WS02003072WS02003073        0.01      0.01      0.01      5.06         0.01
  HS02004876HS02004881        0.01      0.01      0.01      0.49         0.01
  HS02004785HS02004788        0.01      0.01      0.01      0.35         0.01
  HS02004480HS02004478        0.01      0.01      0.01      0.79         0.01
  YS02001759YS02001757        6.09      6.09      6.12      0.01         0.01
  YS02001762YS02001759        6.08      6.08      6.09      0.01         0.01
  YS02001765YS02001762        6.08      6.08      6.08      0.01         0.01
  YS02001770YS02001767        6.07      6.07      6.07      0.80         0.68
  YS02001774YS02001770        6.07      6.07      6.08      0.01         0.01
  YS02001779YS02001774        6.04      6.04      6.08      0.01         0.01
  YS02001649YS02001757        6.08      6.08      6.12      0.01         0.01
  YS02001767YS02001765        6.07      6.07      6.08      0.01         0.01
  YS02006561YS02001783        1.62      1.62      2.12      0.01         0.01
  YS02001783YS02001784        2.11      2.12      2.19      2.03         1.94
  YS02001784YS02001785        2.06      2.19      2.06      2.74         2.06
  YS02001788YS02001790        2.05      2.05      2.70      0.01         0.01
  YS02001790YS02001791        2.70      2.70      2.73      1.53         1.48
  YS02001791YS02001793        2.73      2.73      2.82      0.01         0.01
  YS02001910YS02001907        1.95      1.95      2.26      0.01         0.01
  YS02001786YS02001788        2.05      2.06      2.05      2.41         2.05
  YS02001915YS02001910        1.75      1.75      1.95      0.01         0.01
  YS02001918YS02001915        1.52      1.52      1.75      0.01         0.01
  YS02001923YS02001920        1.33      1.33      1.55      0.01         0.01
  YS02001926YS02001923        0.01      0.01      0.01      0.01         0.01
  YS02001929YS02001926        0.01      0.01      0.01      0.01         0.01
  YS02001920YS02001918        1.52      1.52      1.55      0.01         0.01
  YS02001629YS02163301        6.06      6.06      6.07      0.01         0.01
  YS02001619YS02001622        6.02      6.02      6.02      0.01         0.01
  YS02001622YS02001625        6.02      6.02      6.05      0.01         0.01
  YS02001625YS02001629        6.02      6.02      6.05      0.01         0.01
  YS02163301YS02001633        6.07      6.07      6.08      0.01         0.01
  YS02163601YS02164001        6.08      6.08      6.09      0.01         0.01
  YS02164001YS02001641        6.08      6.08      6.08      0.01         0.02
  YS02001641YS02001644        6.08      6.08      6.08      2.21         2.18
  YS02001647YS02001649        6.05      6.05      6.08      0.01         0.01
  YS02006553YS02006556        2.11      2.11      2.31      0.01         0.01
  YS02006556YS02006558        2.17      2.17      2.36      0.01         0.01
  YSB6556YSB1171              0.01      0.01      0.14      0.01         0.01
  YS02001907YS02006553        2.76      2.76      2.95      0.01         0.01
  YS02006558YS02006561        1.79      2.09      1.79      2.63         1.79
  YS02001633YS02163601        6.08      6.08      6.09      0.01         0.01
  YS02001644YS02001647        6.05      6.05      6.08      0.01         0.01
  YS02001745YS02001748        0.01      0.01      5.99      0.01         0.01
  YS02001748YS02001751        6.00      6.00      6.02      0.01         0.01
  YS02001751YS02001754        6.02      6.02      6.04      0.01         0.01
  YS02001754YS02001757        6.05      6.05      6.12      0.01         0.01
  YS02001882YS02001884        1.76      1.76      1.80      0.01         0.01
  YS02001884YS02001887        1.85      1.85      1.88      0.01         0.01
  YS02001890YS02001895        1.74      1.74      1.96      0.01         0.01
  YS02001895YS02001898        1.72      1.72      1.74      0.01         0.01
  YS02001898YS02001901        1.75      1.75      1.84      0.01         0.01
  YS02001901YS02001904        1.82      1.82      1.84      0.01         0.01
  YS02001904YS02001907        1.82      1.82      2.33      0.01         0.01
  YS02001887YS02001890        1.90      1.90      1.93      0.20         0.01
  YS02001652YS02001649        6.06      6.06      6.08      0.01         0.01
  YS02001655YS02001652        6.02      6.02      6.05      0.01         0.01
  YS02001658YS02001655        6.00      6.00      6.02      0.01         0.01
  YS02001661YS02001658        0.19      0.19      6.00      0.01         0.01
  YS02001664YS02001661        0.01      0.01      1.81      0.01         0.01
  YS02001793JiankangQianchi        2.79      2.79      5.75      0.01         0.01
  YS02001757CaochengTiaoxuchi        5.60      5.60      6.12      0.01         0.01
  
  
  ***************
  Pumping Summary
  ***************
  
  ---------------------------------------------------------------------------------------------------------
                                                  Min       Avg       Max     Total     Power    % Time Off
                        Percent   Number of      Flow      Flow      Flow    Volume     Usage    Pump Curve
  Pump                 Utilized   Start-Ups       LPS       LPS       LPS  10^6 ltr     Kw-hr    Low   High
  ---------------------------------------------------------------------------------------------------------
  CC-Pump-1               53.18           6      0.00    125.27    200.00     1.800      2.11    0.0    6.9
  CC-Pump-2               66.50           6      0.00    113.45    200.00     2.049      2.40    0.0    6.3
  JK-Pump-1               59.57           4      0.00    171.47    300.00     2.710     33.20    0.0    0.0
  JK-Pump-2               68.07           3      0.00    183.73    300.00     3.335     36.54    0.0    0.0
  XR-Pump-1               76.58           6      0.00     70.32     95.00     1.682     15.74    0.0    0.0
  XR-Pump-2               93.61           6      0.00     73.97     95.00     2.052     17.32    0.0    0.0
  XR-Pump-3               85.10           8      0.00     64.79     95.00     1.739     15.34    0.0    0.0
  XR-Pump-4               48.93           9      0.00     62.35     95.00     0.826      5.40    0.0    0.0
  

  Analysis begun on:  Wed Dec 22 09:59:29 2021
  Analysis ended on:  Wed Dec 22 09:59:33 2021
  Total elapsed time: 00:00:04