
  EPA STORM WATER MANAGEMENT MODEL - VERSION 5.1 (Build 5.3.0.dev0)
  --------------------------------------------------------------

  WARNING 04: minimum elevation drop used for Conduit WS02004404WS02004405
  WARNING 03: negative offset ignored for Link YS02001904YS02001907
  
  *********************************************************
  NOTE: The summary statistics displayed in this report are
  based on results found at every computational time step,  
  not just on results from each reporting time step.
  *********************************************************
  
  ****************
  Analysis Options
  ****************
  Flow Units ............... LPS
  Process Models:
    Rainfall/Runoff ........ YES
    RDII ................... NO
    Snowmelt ............... NO
    Groundwater ............ NO
    Flow Routing ........... YES
    Ponding Allowed ........ NO
    Water Quality .......... NO
  Infiltration Method ...... HORTON
  Flow Routing Method ...... DYNWAVE
  Surcharge Method ......... EXTRAN
  Starting Date ............ 08/28/2015 08:00:00
  Ending Date .............. 08/28/2015 16:00:00
  Antecedent Dry Days ...... 8.0
  Report Time Step ......... 00:01:00
  Wet Time Step ............ 00:01:00
  Dry Time Step ............ 00:01:00
  Routing Time Step ........ 5.00 sec
  Variable Time Step ....... YES
  Maximum Trials ........... 8
  Number of Threads ........ 4
  Head Tolerance ........... 0.001500 m
  
  
  **************************        Volume         Depth
  Runoff Quantity Continuity     hectare-m            mm
  **************************     ---------       -------
  Total Precipitation ......         4.872        10.667
  Evaporation Loss .........         0.000         0.000
  Infiltration Loss ........         1.251         2.739
  Surface Runoff ...........         2.626         5.750
  Final Storage ............         0.996         2.180
  Continuity Error (%) .....        -0.015
  
  
  **************************        Volume        Volume
  Flow Routing Continuity        hectare-m      10^6 ltr
  **************************     ---------     ---------
  Dry Weather Inflow .......         0.630         6.296
  Wet Weather Inflow .......         2.626        26.255
  Groundwater Inflow .......         0.000         0.000
  RDII Inflow ..............         0.000         0.000
  External Inflow ..........         0.105         1.045
  External Outflow .........         2.233        22.328
  Flooding Loss ............         0.620         6.202
  Evaporation Loss .........         0.000         0.000
  Exfiltration Loss ........         0.000         0.000
  Initial Stored Volume ....         0.076         0.761
  Final Stored Volume ......         0.633         6.332
  Continuity Error (%) .....        -1.468
  
  
  *************************
  Highest Continuity Errors
  *************************
  Node HS02004842 (17.66%)
  Node YS02001884 (11.76%)
  Node YS02001774 (9.07%)
  Node JK-storage (-6.42%)
  Node YSB1171 (3.60%)
  
  
  ***************************
  Time-Step Critical Elements
  ***************************
  Link WS02006252WS02006251 (62.38%)
  Link 3 (32.46%)
  Link WS02006238WS02006235 (1.04%)
  
  
  ********************************
  Highest Flow Instability Indexes
  ********************************
  Link WS02006113WS02006111 (36)
  Link YS02163301YS02001633 (35)
  Link YS02001629YS02163301 (34)
  Link YS02163601YS02164001 (34)
  Link YS02001619YS02001622 (34)
  
  
  *************************
  Routing Time Step Summary
  *************************
  Minimum Time Step           :     0.50 sec
  Average Time Step           :     0.78 sec
  Maximum Time Step           :     5.00 sec
  Percent in Steady State     :    -0.00
  Average Iterations per Step :     4.26
  Percent Not Converging      :    18.88
  
  
  ***************************
  Subcatchment Runoff Summary
  ***************************
  
  ------------------------------------------------------------------------------------------------------------------------------
                            Total      Total      Total      Total     Imperv       Perv      Total       Total     Peak  Runoff
                           Precip      Runon       Evap      Infil     Runoff     Runoff     Runoff      Runoff   Runoff   Coeff
  Subcatchment                 mm         mm         mm         mm         mm         mm         mm    10^6 ltr      LPS
  ------------------------------------------------------------------------------------------------------------------------------
  sub0                      10.67       0.00       0.00       0.75       8.66       0.00       8.66        0.01     1.19   0.811
  sub1                      10.67       0.00       0.00       1.17       8.24       0.00       8.24        0.05     8.62   0.772
  sub2                      10.67       0.00       0.00       3.95       5.81       0.00       5.81        0.05     8.20   0.545
  sub3                      10.67       0.00       0.00       3.95       5.78       0.00       5.78        0.13    19.58   0.542
  sub4                      10.67       0.00       0.00       1.17       8.09       0.00       8.09        0.17    25.08   0.758
  sub5                      10.67       0.00       0.00       0.75       8.61       0.00       8.61        0.10    15.34   0.807
  sub7                      10.67       0.00       0.00       0.96       8.45       0.00       8.45        0.03     4.68   0.792
  sub8                      10.67       0.00       0.00       0.96       8.44       0.00       8.44        0.05     8.75   0.791
  sub9                      10.67       0.00       0.00       0.96       8.44       0.00       8.44        0.04     6.56   0.791
  sub10                     10.67       0.00       0.00       0.85       8.52       0.00       8.52        0.09    14.94   0.799
  sub11                     10.67       0.00       0.00       0.85       8.54       0.00       8.54        0.10    16.16   0.800
  sub12                     10.67       0.00       0.00       1.39       8.09       0.00       8.09        0.07    11.86   0.759
  sub14                     10.67       0.00       0.00       0.96       8.44       0.00       8.44        0.08    12.95   0.791
  sub15                     10.67       0.00       0.00       3.20       6.49       0.00       6.49        0.11    17.88   0.608
  sub16                     10.67       0.00       0.00       3.52       6.23       0.00       6.23        0.07    10.86   0.584
  sub17                     10.67       0.00       0.00       3.41       6.32       0.00       6.32        0.05     8.99   0.592
  sub22                     10.67       0.00       0.00       4.59       5.29       0.00       5.29        0.33    54.62   0.496
  sub23                     10.67       0.00       0.00       3.95       5.85       0.00       5.85        0.28    45.77   0.548
  sub60                     10.67       0.00       0.00       1.28       6.59       0.00       6.59        2.00   210.55   0.618
  sub61                     10.67       0.00       0.00       1.81       6.74       0.00       6.74        2.08   246.02   0.632
  sub62                     10.67       0.00       0.00       0.85       7.32       0.00       7.32        2.25   257.87   0.686
  sub63                     10.67       0.00       0.00       3.09       5.91       0.00       5.91        1.79   220.65   0.554
  sub64                     10.67       0.00       0.00       1.60       6.32       0.00       6.32        1.92   200.71   0.592
  sub65                     10.67       0.00       0.00       1.39       6.42       0.00       6.42        1.97   204.40   0.602
  sub66                     10.67       0.00       0.00       3.09       5.44       0.00       5.44        1.67   180.89   0.510
  sub67                     10.67       0.00       0.00       0.85       7.76       0.00       7.76        2.39   302.81   0.727
  sub68                     10.67       0.00       0.00       1.49       7.10       0.00       7.10        2.18   265.21   0.666
  sub69                     10.67       0.00       0.00       1.60       7.40       0.00       7.40        1.73   233.41   0.693
  sub70                     10.67       7.55       0.00       6.19       9.78       0.01       9.79        2.24   243.08   0.537
  sub71                     10.67       0.00       0.00       0.85       7.11       0.00       7.11        1.68   184.68   0.667
  sub72                     10.67       0.00       0.00       0.75       5.58       0.00       5.58        1.14    95.71   0.523
  sub73                     10.67       9.53       0.00       6.87      10.58       0.00      10.58        2.49   223.24   0.524
  sub74                     10.67       0.00       0.00       8.00       2.21       0.00       2.21        0.88   122.99   0.207
  
  
  ******************
  Node Depth Summary
  ******************
  
  ---------------------------------------------------------------------------------
                                 Average  Maximum  Maximum  Time of Max    Reported
                                   Depth    Depth      HGL   Occurrence   Max Depth
  Node                 Type       Meters   Meters   Meters  days hr:min      Meters
  ---------------------------------------------------------------------------------
  WS02001211           JUNCTION     0.70     0.73     5.56     0  02:24        0.73
  WS02001212           JUNCTION     0.42     0.45     5.52     0  02:23        0.45
  WS02001213           JUNCTION     0.66     0.71     5.47     0  02:22        0.71
  WS02003069           JUNCTION     0.48     0.56     5.15     0  02:22        0.56
  WS02003072           JUNCTION     0.54     0.62     4.99     0  02:22        0.62
  WS02003073           JUNCTION     0.33     0.38     4.45     0  02:22        0.38
  WS02003060           JUNCTION     0.42     0.50     5.43     0  02:21        0.50
  WS02003066           JUNCTION     0.25     0.31     5.86     0  02:17        0.31
  WS02003059           JUNCTION     0.71     0.77     5.46     0  02:22        0.77
  WS02003067           JUNCTION     0.60     0.71     6.03     0  02:17        0.71
  WS02004401           JUNCTION     0.71     0.88     6.88     0  02:14        0.88
  WS02004402           JUNCTION     0.74     0.90     6.86     0  02:14        0.90
  WS02004403           JUNCTION     0.76     0.92     6.85     0  02:14        0.92
  WS02004404           JUNCTION     0.84     0.99     6.84     0  02:14        0.99
  WS02004406           JUNCTION     0.84     0.97     6.80     0  02:15        0.97
  WS02004409           JUNCTION     0.53     0.69     6.46     0  02:17        0.69
  WS02004410           JUNCTION     0.55     0.70     6.42     0  02:17        0.70
  WS02004411           JUNCTION     0.56     0.71     6.39     0  02:17        0.71
  WS02004412           JUNCTION     0.58     0.72     6.36     0  02:17        0.72
  WS02004413           JUNCTION     0.73     0.87     6.34     0  02:17        0.87
  WS02004405           JUNCTION     0.83     0.98     6.83     0  02:14        0.98
  WS02006109           JUNCTION     0.80     1.00     7.62     0  02:11        1.00
  WS02006110           JUNCTION     0.79     0.94     7.53     0  02:11        0.94
  WS02006111           JUNCTION     0.23     0.29     7.00     0  02:12        0.29
  WS02006112           JUNCTION     0.89     1.12     7.00     0  02:32        1.10
  WS02006113           JUNCTION     0.36     0.47     7.36     0  02:12        0.47
  WS02006115           JUNCTION     0.61     0.78     6.92     0  02:23        0.78
  WS02006116           JUNCTION     0.69     0.86     6.90     0  02:14        0.86
  WS02006230           JUNCTION     0.78     1.05     7.79     0  02:11        1.05
  WS02006231           JUNCTION     0.52     0.71     7.83     0  02:12        0.71
  WS02006232           JUNCTION     0.66     0.84     7.88     0  02:12        0.84
  WS02006234           JUNCTION     0.58     0.77     7.92     0  02:12        0.77
  WS02006235           JUNCTION     0.61     0.80     7.96     0  03:08        0.80
  WS02006238           JUNCTION     0.64     0.83     7.97     0  03:10        0.82
  WS02006240           JUNCTION     0.53     0.75     8.04     0  03:11        0.75
  WS02006242           JUNCTION     0.58     0.81     8.08     0  03:11        0.81
  WS02006243           JUNCTION     0.46     0.70     8.12     0  03:11        0.70
  WS02006245           JUNCTION     0.44     0.67     8.16     0  03:11        0.67
  WS02006247           JUNCTION     0.45     0.68     8.18     0  03:11        0.68
  WS02006248           JUNCTION     0.39     0.61     8.20     0  03:11        0.61
  WS02006249           JUNCTION     0.42     0.62     8.22     0  03:11        0.62
  WS02006239           JUNCTION     0.59     0.80     8.01     0  03:10        0.80
  WS02006251           JUNCTION     0.41     0.65     8.32     0  03:10        0.65
  WS02006252           JUNCTION     0.34     0.59     8.84     0  03:15        0.59
  WS02006253           JUNCTION     0.43     0.68     8.32     0  03:10        0.68
  WS02006256           JUNCTION     1.09     1.21     8.14     0  03:08        1.21
  WS02004138           JUNCTION     0.16     0.17     7.42     0  00:24        0.17
  WS02004407           JUNCTION     0.24     0.31     6.62     0  02:15        0.31
  WS02006228           JUNCTION     0.81     1.05     7.70     0  02:26        1.04
  WS02006229           JUNCTION     0.78     1.04     7.74     0  02:11        1.04
  WS02006280           JUNCTION     0.07     0.15     8.42     0  02:10        0.15
  WS02006284           JUNCTION     0.37     0.49     8.89     0  02:10        0.49
  WS02006287           JUNCTION     0.11     0.22     9.18     0  02:10        0.22
  WSF200               JUNCTION     0.24     0.32     5.55     0  02:17        0.32
  HS02004901           JUNCTION     0.13     0.23    10.06     0  02:07        0.23
  HS02004881           JUNCTION     0.01     0.03     9.06     0  02:09        0.03
  HS02004876           JUNCTION     0.05     0.10     9.13     0  02:06        0.10
  HS02004870           JUNCTION     0.02     0.05     9.33     0  02:09        0.05
  HS02004862           JUNCTION     0.02     0.05     9.44     0  02:50        0.05
  HS02004856           JUNCTION     0.08     0.11     9.53     0  02:10        0.11
  HS02004852           JUNCTION     0.01     0.03     9.54     0  02:51        0.03
  HS02004848           JUNCTION     0.01     0.03     9.63     0  02:50        0.03
  HS02004842           JUNCTION     0.33     0.36     9.63     0  02:50        0.36
  HS02004837           JUNCTION     0.03     0.05     9.63     0  02:50        0.05
  HS02004830           JUNCTION     0.04     0.07     9.54     0  02:51        0.07
  HS02004824           JUNCTION     0.02     0.05     9.45     0  02:51        0.05
  HS02004817           JUNCTION     0.44     0.54     9.39     0  02:10        0.54
  HS02004807           JUNCTION     0.13     0.21     9.38     0  02:10        0.21
  HS02004802           JUNCTION     0.17     0.25     9.38     0  02:10        0.25
  HS02004799           JUNCTION     0.13     0.26     9.48     0  02:08        0.26
  HS02004792           JUNCTION     0.04     0.10     9.62     0  02:07        0.10
  HS02004788           JUNCTION     0.03     0.08     9.97     0  02:08        0.08
  HS02004785           JUNCTION     0.05     0.14    10.04     0  02:08        0.14
  HS02004777           JUNCTION     0.15     0.25    10.05     0  02:07        0.25
  HS02004770           JUNCTION     0.12     0.23    10.06     0  02:07        0.23
  HS02004480           JUNCTION     0.09     0.21     9.45     0  02:08        0.21
  HS02004479           JUNCTION     0.12     0.24     9.45     0  02:08        0.24
  HS02004478           JUNCTION     0.07     0.13     9.36     0  02:09        0.13
  YS02001745           JUNCTION     0.67     0.86     8.38     0  03:35        0.86
  YS02001748           JUNCTION     1.06     2.27     9.35     0  02:43        1.31
  YS02001751           JUNCTION     1.24     2.20     9.08     0  02:27        1.52
  YS02001754           JUNCTION     1.50     2.13     8.74     0  02:27        1.80
  YS02001762           JUNCTION     1.70     2.02     8.42     0  03:10        2.02
  YS02001765           JUNCTION     1.65     1.97     8.42     0  03:03        1.97
  YS02001767           JUNCTION     1.61     1.93     8.42     0  03:35        1.92
  YS02001770           JUNCTION     1.61     1.91     8.40     0  02:45        1.90
  YS02001774           JUNCTION     1.68     1.98     8.40     0  02:45        1.96
  YS02001779           JUNCTION     1.43     1.68     8.37     0  02:27        1.68
  YS02001882           JUNCTION     0.43     0.82     7.53     0  03:02        0.82
  YS02001884           JUNCTION     0.52     0.92     7.53     0  03:01        0.91
  YS02001759           JUNCTION     1.73     2.06     8.43     0  03:05        2.06
  YS02001887           JUNCTION     0.60     0.99     7.53     0  03:01        0.99
  YS02001890           JUNCTION     0.63     1.02     7.53     0  03:01        1.02
  YS02001898           JUNCTION     0.40     0.78     7.51     0  03:01        0.78
  YS02001901           JUNCTION     0.52     0.90     7.51     0  03:02        0.90
  YS02001904           JUNCTION     0.49     0.88     7.51     0  03:01        0.88
  YS02001907           JUNCTION     0.82     1.22     7.51     0  03:01        1.22
  YS02001910           JUNCTION     0.61     1.01     7.52     0  03:01        1.01
  YS02001915           JUNCTION     0.41     0.80     7.51     0  03:02        0.80
  YS02001918           JUNCTION     0.16     0.45     7.52     0  03:02        0.45
  YS02001619           JUNCTION     1.21     1.61     8.54     0  02:33        1.56
  YS02001629           JUNCTION     1.57     1.85     8.40     0  02:38        1.84
  YS02001641           JUNCTION     1.67     1.95     8.39     0  02:45        1.93
  YS02001644           JUNCTION     1.67     1.92     8.35     0  02:43        1.92
  YS02001652           JUNCTION     1.51     2.16     8.76     0  02:56        1.92
  YS02001655           JUNCTION     1.27     2.20     9.05     0  02:28        1.73
  YS02001920           JUNCTION     0.26     0.51     7.52     0  03:02        0.51
  YS02001923           JUNCTION     0.11     0.26     7.52     0  03:02        0.25
  YS02001926           JUNCTION     0.20     0.27     7.71     0  03:01        0.27
  YS02001929           JUNCTION     0.10     0.15     7.84     0  03:01        0.15
  YS02001658           JUNCTION     1.00     2.30     9.44     0  02:36        1.49
  YS02001661           JUNCTION     0.78     2.46     9.86     0  02:57        1.25
  YS02001664           JUNCTION     0.34     0.57     8.50     0  02:55        0.56
  YS02001622           JUNCTION     1.23     1.62     8.52     0  02:37        1.53
  YS02001633           JUNCTION     1.66     1.98     8.43     0  02:45        1.94
  YS02001649           JUNCTION     1.71     2.05     8.44     0  02:36        2.05
  YS02001757           JUNCTION     1.83     2.16     8.43     0  03:10        2.16
  YS02001895           JUNCTION     0.39     0.77     7.52     0  03:01        0.77
  YS02001625           JUNCTION     1.52     1.78     8.38     0  02:38        1.78
  YS02163301           JUNCTION     1.60     1.90     8.42     0  02:45        1.87
  YS02163601           JUNCTION     1.71     2.03     8.43     0  02:45        1.97
  YS02164001           JUNCTION     1.65     1.96     8.41     0  02:45        1.91
  YS02001647           JUNCTION     1.50     1.80     8.41     0  03:04        1.79
  YSB1154              JUNCTION     0.27     0.39     9.45     0  02:08        0.39
  YSB6556              JUNCTION     0.16     0.28     9.45     0  02:08        0.28
  YSB1174              JUNCTION     0.22     0.34     9.45     0  02:08        0.34
  YSB1171              JUNCTION     0.42     0.54     9.45     0  02:08        0.54
  YS02006553           JUNCTION     0.83     1.21     7.50     0  03:01        1.21
  YS02006561           JUNCTION     0.22     0.52     7.18     0  03:10        0.52
  YS02006556           JUNCTION     0.80     1.17     7.48     0  03:07        1.17
  YS02006558           JUNCTION     0.84     1.21     7.48     0  03:07        1.21
  YS02001783           JUNCTION     0.44     1.15     7.29     0  03:06        1.05
  YS02001784           JUNCTION     0.47     1.19     7.26     0  03:06        1.04
  YS02001786           JUNCTION     0.42     1.28     7.31     0  03:06        0.97
  YS02001788           JUNCTION     0.37     1.46     7.44     0  03:06        0.91
  YS02001790           JUNCTION     0.49     1.60     7.24     0  03:05        1.15
  YS02001791           JUNCTION     0.47     1.32     6.79     0  03:06        1.21
  YS02001793           JUNCTION     0.63     1.79     6.63     0  03:30        1.79
  WS02004139           JUNCTION     0.64     0.67     5.58     0  02:24        0.67
  WSC                  OUTFALL      0.32     0.38     1.05     0  02:23        0.38
  3                    OUTFALL      0.11     0.21     6.21     0  03:08        0.21
  4                    OUTFALL      0.01     0.12     7.12     0  03:11        0.12
  5                    OUTFALL      0.00     0.00     5.00     0  00:00        0.00
  JK-storage           STORAGE      2.41     5.80     6.60     0  03:07        5.80
  CC-storage           STORAGE      1.04     1.36     8.36     0  03:37        1.36
  XR-storage           STORAGE      6.45     7.72     5.72     0  03:03        7.72
  
  
  *******************
  Node Inflow Summary
  *******************
  
  -------------------------------------------------------------------------------------------------
                                  Maximum  Maximum                  Lateral       Total        Flow
                                  Lateral    Total  Time of Max      Inflow      Inflow     Balance
                                   Inflow   Inflow   Occurrence      Volume      Volume       Error
  Node                 Type           LPS      LPS  days hr:min    10^6 ltr    10^6 ltr     Percent
  -------------------------------------------------------------------------------------------------
  WS02001211           JUNCTION      7.35   293.24     0  03:41       0.212        8.07       0.186
  WS02001212           JUNCTION      0.00   293.91     0  03:42           0        8.06       0.103
  WS02001213           JUNCTION      0.00   294.54     0  03:42           0        8.05       0.159
  WS02003069           JUNCTION      0.32   879.47     0  02:22     0.00922        17.2       0.104
  WS02003072           JUNCTION      0.00   879.46     0  02:22           0        17.2       0.142
  WS02003073           JUNCTION      1.82   881.27     0  02:22      0.0524        17.2       0.155
  WS02003060           JUNCTION     16.53   879.19     0  02:21       0.476        17.2       0.096
  WS02003066           JUNCTION      0.00   570.75     0  02:17           0         8.7       0.043
  WS02003059           JUNCTION      0.00   295.64     0  03:41           0        8.04       0.310
  WS02003067           JUNCTION      0.00   570.74     0  02:17           0        8.71       0.093
  WS02004401           JUNCTION      0.00   571.02     0  02:13           0        8.89       0.187
  WS02004402           JUNCTION      0.00   570.96     0  02:14           0        8.88       0.181
  WS02004403           JUNCTION      0.00   570.92     0  02:14           0        8.86       0.169
  WS02004404           JUNCTION      0.16   571.07     0  02:14     0.00467        8.85       0.132
  WS02004406           JUNCTION      0.00   571.10     0  02:14           0        8.82       0.325
  WS02004409           JUNCTION      0.00   571.10     0  02:15           0        8.79       0.137
  WS02004410           JUNCTION      0.00   570.93     0  02:15           0        8.78       0.164
  WS02004411           JUNCTION      0.00   570.83     0  02:16           0        8.76       0.174
  WS02004412           JUNCTION      0.00   570.77     0  02:17           0        8.75       0.195
  WS02004413           JUNCTION      0.00   570.75     0  02:17           0        8.73       0.299
  WS02004405           JUNCTION      0.04   571.10     0  02:14      0.0011        8.84       0.198
  WS02006109           JUNCTION      1.23   563.09     0  02:11      0.0354        8.93       0.169
  WS02006110           JUNCTION      0.00   563.08     0  02:11           0        8.91       0.147
  WS02006111           JUNCTION      0.00   587.67     0  02:12           0        8.89       0.023
  WS02006112           JUNCTION      8.99   576.30     0  02:12      0.0542        8.95       0.271
  WS02006113           JUNCTION      0.00   563.38     0  02:11           0         8.9       0.054
  WS02006115           JUNCTION      0.00   582.44     0  02:33           0        8.92       0.158
  WS02006116           JUNCTION      0.00   571.56     0  02:23           0        8.91       0.143
  WS02006230           JUNCTION     10.28   388.39     0  03:21       0.296        7.26       0.148
  WS02006231           JUNCTION      0.00   377.15     0  03:21           0        6.96      -0.012
  WS02006232           JUNCTION      0.00   377.13     0  03:21           0        6.97       0.116
  WS02006234           JUNCTION      0.00   376.98     0  03:20           0        6.97       0.002
  WS02006235           JUNCTION      0.00   376.96     0  03:20           0        7.01       0.081
  WS02006238           JUNCTION      0.00   289.05     0  03:21           0         4.7       0.042
  WS02006240           JUNCTION      0.00   288.75     0  03:21           0        4.67       0.034
  WS02006242           JUNCTION      0.00   288.70     0  03:21           0        4.66       0.046
  WS02006243           JUNCTION      0.00   287.68     0  03:20           0        4.65      -0.045
  WS02006245           JUNCTION      0.00   287.30     0  03:20           0        4.65       0.036
  WS02006247           JUNCTION      0.00   287.07     0  03:20           0        4.65       0.008
  WS02006248           JUNCTION      0.00   286.79     0  03:20           0        4.65      -0.015
  WS02006249           JUNCTION      0.00   427.61     0  03:10           0        4.86       0.036
  WS02006239           JUNCTION      0.00   288.95     0  03:21           0        4.68       0.037
  WS02006251           JUNCTION      0.08   427.91     0  03:10     0.00222        4.86       0.001
  WS02006252           JUNCTION      0.00   400.00     0  03:10           0        4.54       0.002
  WS02006253           JUNCTION      1.19    48.63     0  02:08     0.00701       0.311      -0.073
  WS02006256           JUNCTION      0.00   600.00     0  01:57           0         7.3       0.024
  WS02004138           JUNCTION      0.00   285.00     0  00:40           0        7.87       0.001
  WS02004407           JUNCTION      0.00   571.10     0  02:15           0         8.8       0.058
  WS02006228           JUNCTION      0.00   561.86     0  02:11           0         8.9       0.103
  WS02006229           JUNCTION      0.00   561.84     0  02:11           0        8.91       0.093
  WS02006280           JUNCTION      0.00   235.47     0  02:10           0        1.66       0.004
  WS02006284           JUNCTION      0.10   235.46     0  02:10     0.00275        1.66       0.068
  WS02006287           JUNCTION      0.00   235.36     0  02:09           0        1.66       0.043
  WSF200               JUNCTION      0.00   570.76     0  02:18           0        8.69       0.039
  HS02004901           JUNCTION     10.86    10.86     0  02:05      0.0652      0.0654       2.762
  HS02004881           JUNCTION      4.68    47.50     0  02:08      0.0285       0.305       0.105
  HS02004876           JUNCTION      8.62    42.87     0  02:09      0.0548       0.277       0.193
  HS02004870           JUNCTION      8.75    34.37     0  02:09      0.0539       0.222       0.048
  HS02004862           JUNCTION      8.40    25.85     0  02:09      0.0599       0.168       0.100
  HS02004856           JUNCTION      6.56    17.51     0  02:09      0.0406        0.11       1.326
  HS02004852           JUNCTION      0.00    11.36     0  02:50           0      0.0694       0.076
  HS02004848           JUNCTION     19.58    19.58     0  02:50        0.13        0.13       0.034
  HS02004842           JUNCTION      0.00     8.21     0  02:50           0      0.0736      21.450
  HS02004837           JUNCTION     21.29    28.74     0  02:50       0.277       0.337       0.233
  HS02004830           JUNCTION      0.15    28.88     0  02:50     0.00432       0.328       0.378
  HS02004824           JUNCTION     25.13    54.00     0  02:50        0.17       0.497       0.109
  HS02004817           JUNCTION      0.60    54.60     0  02:51      0.0173       0.514       3.354
  HS02004807           JUNCTION     16.16    69.48     0  02:50      0.0992       0.596       0.722
  HS02004802           JUNCTION      0.00    69.45     0  02:51           0       0.593       0.681
  HS02004799           JUNCTION     12.95   142.55     0  02:07      0.0803        0.92       0.285
  HS02004792           JUNCTION     54.90   129.72     0  02:07       0.342        0.84       0.048
  HS02004788           JUNCTION     19.55    75.43     0  02:08        0.16       0.499       0.077
  HS02004785           JUNCTION      0.15    56.08     0  02:07     0.00432       0.341       0.142
  HS02004777           JUNCTION      0.03    56.13     0  02:06    0.000864       0.341       1.543
  HS02004770           JUNCTION     45.77    56.42     0  02:06       0.279       0.343       0.910
  HS02004480           JUNCTION      0.00   169.08     0  02:08           0        1.08       0.106
  HS02004479           JUNCTION      0.00    26.80     0  02:10           0       0.177       0.414
  HS02004478           JUNCTION      0.00   235.36     0  02:09           0        1.66       0.020
  YS02001745           JUNCTION    210.56   299.87     0  02:43           2           2       0.571
  YS02001748           JUNCTION      0.04   492.57     0  02:43      0.0013           2       1.175
  YS02001751           JUNCTION      0.01   446.01     0  02:26    0.000317        1.97       1.175
  YS02001754           JUNCTION      0.26   228.16     0  02:37     0.00749        1.95       1.250
  YS02001762           JUNCTION      0.00   258.84     0  02:56           0        1.95       1.102
  YS02001765           JUNCTION      0.00   258.51     0  02:56           0        1.96       1.267
  YS02001767           JUNCTION      0.54   258.40     0  02:57      0.0154        1.98       1.850
  YS02001770           JUNCTION    258.03   258.03     0  03:01        2.25        2.26       1.426
  YS02001774           JUNCTION      0.00    86.41     0  03:40           0       0.279       9.978
  YS02001779           JUNCTION      0.01    86.48     0  03:40    0.000144       0.246       6.598
  YS02001882           JUNCTION      0.00    12.82     0  02:28           0      0.0145      16.481
  YS02001884           JUNCTION      0.00    20.52     0  02:26           0      0.0481      13.327
  YS02001759           JUNCTION    246.06   504.29     0  02:56        2.08           4       0.580
  YS02001887           JUNCTION    303.26   303.26     0  02:55        2.41        2.44       0.330
  YS02001890           JUNCTION      0.00   300.32     0  02:56           0        2.39       0.366
  YS02001898           JUNCTION      0.00   298.02     0  03:00           0        2.38       0.114
  YS02001901           JUNCTION      0.00   297.35     0  03:02           0        2.38       0.273
  YS02001904           JUNCTION      0.00   297.80     0  03:01           0        2.37       0.248
  YS02001907           JUNCTION      0.00   581.01     0  03:06           0        5.25       0.446
  YS02001910           JUNCTION      0.00   286.53     0  03:03           0        2.89       0.389
  YS02001915           JUNCTION    184.70   284.60     0  03:04        1.68        2.89       0.192
  YS02001918           JUNCTION      0.00   112.88     0  03:11           0        1.21       0.140
  YS02001619           JUNCTION    180.89   180.89     0  03:01        1.67        1.67       0.716
  YS02001629           JUNCTION      0.00   210.02     0  02:29           0        1.57       1.807
  YS02001641           JUNCTION      0.00   377.26     0  02:53           0        3.44       0.618
  YS02001644           JUNCTION    200.75   706.49     0  03:35        1.92        6.53       0.404
  YS02001652           JUNCTION      0.00   287.38     0  02:36           0        1.74       1.343
  YS02001655           JUNCTION      0.15   395.58     0  02:31     0.00443        1.76       1.382
  YS02001920           JUNCTION      2.87   110.38     0  03:09      0.0827        1.22       0.224
  YS02001923           JUNCTION      0.04    95.54     0  03:01     0.00109        1.13       0.042
  YS02001926           JUNCTION      0.05    95.70     0  03:01      0.0015        1.14       0.277
  YS02001929           JUNCTION     95.71    95.71     0  03:01        1.14        1.14       0.041
  YS02001658           JUNCTION      0.00   622.04     0  02:36           0        1.81       1.278
  YS02001661           JUNCTION      0.00   623.82     0  02:55           0        2.58      -0.058
  YS02001664           JUNCTION    220.65   378.20     0  02:55        1.79        2.56       0.286
  YS02001622           JUNCTION      0.00   180.91     0  03:00           0        1.65       1.917
  YS02001633           JUNCTION    204.60   375.99     0  02:53        1.98         3.5       0.930
  YS02001649           JUNCTION      0.00   787.69     0  02:52           0        4.41       0.851
  YS02001757           JUNCTION      0.00  1467.45     0  02:52           0        9.05       1.032
  YS02001895           JUNCTION      0.00   299.48     0  03:01           0        2.38       0.196
  YS02001625           JUNCTION      0.00   210.01     0  02:29           0        1.62       2.468
  YS02163301           JUNCTION      0.00   205.43     0  02:32           0        1.55       1.577
  YS02163601           JUNCTION      0.11   376.38     0  02:53     0.00317        3.47       0.877
  YS02164001           JUNCTION      0.00   376.63     0  02:53           0        3.45       0.592
  YS02001647           JUNCTION      0.00   572.26     0  02:53           0        3.37       0.853
  YSB1154              JUNCTION     15.34    15.34     0  02:06      0.0975      0.0983       1.492
  YSB6556              JUNCTION      0.00    15.25     0  02:08           0       0.099       1.274
  YSB1174              JUNCTION     11.86    11.86     0  02:05      0.0707      0.0712       1.834
  YSB1171              JUNCTION      0.00    26.77     0  02:08           0       0.176       3.736
  YS02006553           JUNCTION      0.00   581.02     0  03:06           0        5.24       0.293
  YS02006561           JUNCTION      0.00   835.29     0  03:02           0        7.39       0.004
  YS02006556           JUNCTION      0.00   581.03     0  03:06           0        5.24       0.209
  YS02006558           JUNCTION    266.09   835.11     0  03:02        2.21        7.42       0.073
  YS02001783           JUNCTION      0.00   834.95     0  03:02           0        7.39       0.028
  YS02001784           JUNCTION      1.06   835.93     0  03:02      0.0305        7.42       0.046
  YS02001786           JUNCTION      0.06   835.98     0  03:02     0.00162        7.42       0.041
  YS02001788           JUNCTION      0.07   836.19     0  03:02     0.00204        7.42       0.024
  YS02001790           JUNCTION      0.15   837.18     0  03:03     0.00446        7.42       0.031
  YS02001791           JUNCTION      0.00   875.50     0  03:01           0        7.42       0.012
  YS02001793           JUNCTION      0.00   856.02     0  03:01           0        7.42       0.001
  WS02004139           JUNCTION      0.32   285.32     0  00:13     0.00924        7.87       0.183
  WSC                  OUTFALL       0.00   881.28     0  02:23           0        17.2       0.000
  3                    OUTFALL       0.00   515.47     0  03:08           0        4.97       0.000
  4                    OUTFALL       0.00   148.59     0  03:11           0       0.206       0.000
  5                    OUTFALL       0.00     0.00     0  00:00           0           0       0.000 ltr
  JK-storage           STORAGE       0.00   828.50     0  02:58           0        7.57      -6.034
  CC-storage           STORAGE       0.00  1467.81     0  02:52           0         8.4       0.781
  XR-storage           STORAGE     542.46   542.46     0  03:01        9.13        9.73       0.001
  
  
  **********************
  Node Surcharge Summary
  **********************
  
  Surcharging occurs when water rises above the top of the highest conduit.
  ---------------------------------------------------------------------
                                               Max. Height   Min. Depth
                                   Hours       Above Crown    Below Rim
  Node                 Type      Surcharged         Meters       Meters
  ---------------------------------------------------------------------
  WS02006109           JUNCTION        1.77          0.177        1.643
  WS02006110           JUNCTION        1.19          0.030        1.820
  WS02006112           JUNCTION        1.39          0.118        1.562
  WS02006231           JUNCTION        0.08          0.001        1.529
  WS02006232           JUNCTION        1.67          0.136        1.344
  WS02006234           JUNCTION        1.35          0.047        1.193
  WS02006235           JUNCTION        1.52          0.088        1.202
  WS02006238           JUNCTION        1.56          0.105        1.325
  WS02006240           JUNCTION        1.19          0.036        1.354
  WS02006242           JUNCTION        1.40          0.082        0.738
  WS02006239           JUNCTION        1.38          0.056        1.234
  WS02006252           JUNCTION        0.42          0.193        0.907
  WS02006228           JUNCTION        1.76          0.217        1.983
  YS02001748           JUNCTION        5.19          1.190        0.000
  YS02001751           JUNCTION        5.45          1.200        0.000
  YS02001754           JUNCTION        5.71          1.080        0.070
  YS02001762           JUNCTION        5.97          1.024        0.126
  YS02001765           JUNCTION        5.93          0.973        0.127
  YS02001767           JUNCTION        5.91          0.928        0.102
  YS02001770           JUNCTION        5.89          0.878        0.042
  YS02001774           JUNCTION        5.96          0.979        0.071
  YS02001779           JUNCTION        5.69          0.680        0.000
  YS02001759           JUNCTION        5.99          1.064        0.146
  YS02001907           JUNCTION        1.19          0.210        0.740
  YS02001910           JUNCTION        0.06          0.010        1.090
  YS02001619           JUNCTION        5.42          0.610        0.000
  YS02001629           JUNCTION        5.44          0.470        0.000
  YS02001641           JUNCTION        5.95          0.954        0.146
  YS02001644           JUNCTION        5.95          0.920        0.000
  YS02001652           JUNCTION        5.73          1.130        0.000
  YS02001655           JUNCTION        5.46          1.200        0.000
  YS02001658           JUNCTION        5.22          1.300        0.000
  YS02001661           JUNCTION        0.20          1.390        0.000
  YS02001622           JUNCTION        5.47          0.620        0.000
  YS02001633           JUNCTION        5.93          0.958        0.102
  YS02001649           JUNCTION        5.97          1.050        0.000
  YS02001757           JUNCTION        6.08          1.165        0.045
  YS02001625           JUNCTION        5.75          0.780        0.000
  YS02163301           JUNCTION        5.90          0.904        0.126
  YS02163601           JUNCTION        5.97          1.028        0.052
  YS02164001           JUNCTION        5.94          0.956        0.144
  YS02001647           JUNCTION        5.74          0.798        0.102
  YS02006553           JUNCTION        1.28          0.213        0.977
  YS02006556           JUNCTION        0.66          0.132        1.218
  YS02006558           JUNCTION        0.60          0.111        1.289
  YS02001783           JUNCTION        0.39          0.353        1.247
  YS02001784           JUNCTION        0.44          0.388        1.102
  YS02001786           JUNCTION        0.39          0.482        0.948
  YS02001788           JUNCTION        0.37          0.662        0.818
  YS02001790           JUNCTION        1.77          0.797        0.360
  YS02001791           JUNCTION        1.90          0.522        1.398
  YS02001793           JUNCTION        2.12          0.794        1.806
  
  
  *********************
  Node Flooding Summary
  *********************
  
  Flooding refers to all water that overflows a node, whether it ponds or not.
  --------------------------------------------------------------------------
                                                             Total   Maximum
                                 Maximum   Time of Max       Flood    Ponded
                        Hours       Rate    Occurrence      Volume     Depth
  Node                 Flooded       LPS   days hr:min    10^6 ltr    Meters
  --------------------------------------------------------------------------
  YS02001748              0.01    115.99      0  02:45       0.000     0.000
  YS02001751              0.01    190.83      0  02:28       0.001     0.000
  YS02001779              2.06     86.46      0  03:40       0.223     0.000
  YS02001619              0.01     19.82      0  02:33       0.000     0.000
  YS02001629              0.01     27.68      0  02:40       0.000     0.000
  YS02001644              4.43    706.32      0  03:35       4.315     0.000
  YS02001652              0.01     21.88      0  03:00       0.000     0.000
  YS02001655              0.01    192.95      0  02:30       0.001     0.000
  YS02001658              0.01    261.86      0  02:37       0.001     0.000
  YS02001661              0.01    182.45      0  03:00       0.001     0.000
  YS02001622              0.01     32.21      0  02:38       0.000     0.000
  YS02001649              0.07     51.38      0  03:00       0.004     0.000
  YS02001625              0.34     29.81      0  03:00       0.018     0.000
  JK-storage              1.44    312.85      0  03:28       0.702     0.000
  XR-storage              2.90    247.84      0  03:03       0.936     0.000
  
  
  **********************
  Storage Volume Summary
  **********************
  
  --------------------------------------------------------------------------------------------------
                         Average     Avg  Evap Exfil       Maximum     Max    Time of Max    Maximum
                          Volume    Pcnt  Pcnt  Pcnt        Volume    Pcnt     Occurrence    Outflow
  Storage Unit           1000 m3    Full  Loss  Loss       1000 m3    Full    days hr:min        LPS
  --------------------------------------------------------------------------------------------------
  JK-storage               0.121      42     0     0         0.291     100       0  03:07     600.00
  CC-storage               2.903      18     0     0         3.794      24       0  03:37     400.00
  XR-storage               0.774      84     0     0         0.926     100       0  03:03     285.00
  
  
  ***********************
  Outfall Loading Summary
  ***********************
  
  -----------------------------------------------------------
                         Flow       Avg       Max       Total
                         Freq      Flow      Flow      Volume
  Outfall Node           Pcnt       LPS       LPS    10^6 ltr
  -----------------------------------------------------------
  WSC                  100.00    672.41    881.28      17.154
  3                     93.54    245.10    515.47       4.968
  4                     26.46     39.66    148.59       0.206
  5                      0.00      0.00      0.00       0.000
  -----------------------------------------------------------
  System                55.00    957.18   1527.27      22.328
  
  
  ********************
  Link Flow Summary
  ********************
  
  -----------------------------------------------------------------------------
                                 Maximum  Time of Max   Maximum    Max/    Max/
                                  |Flow|   Occurrence   |Veloc|    Full    Full
  Link                 Type          LPS  days hr:min     m/sec    Flow   Depth
  -----------------------------------------------------------------------------
  WS02003066WSF200     CONDUIT    570.76     0  02:18      2.74    0.10    0.24
  WS02006287WS02006284 CONDUIT    235.37     0  02:10      1.70    0.11    0.23
  WS02006284WS02006280 CONDUIT    235.47     0  02:10      1.94    0.10    0.21
  WS02006280WS02006229 CONDUIT    235.47     0  02:10      3.12    0.05    0.15
  WS02006229WS02006228 CONDUIT    561.86     0  02:11      1.12    1.86    1.00
  WS02006256WS02006235 CONDUIT    150.00     0  00:05      2.14    1.59    1.00
  WS02006253WS02006251 CONDUIT     48.11     0  02:11      0.48    0.14    0.94
  WS02006252WS02006251 CONDUIT    400.27     0  03:11      3.19    1.47    1.00
  WS02006251WS02006249 CONDUIT    427.61     0  03:10      1.16    1.23    0.91
  WS02006249WS02006248 CONDUIT    286.79     0  03:20      1.05    1.57    0.87
  WS02006248WS02006247 CONDUIT    287.07     0  03:20      1.02    0.62    0.92
  WS02006247WS02006245 CONDUIT    287.30     0  03:20      0.98    2.28    0.96
  WS02006245WS02006243 CONDUIT    287.68     0  03:20      1.02    0.85    0.98
  WS02006243WS02006242 CONDUIT    288.70     0  03:21      0.83    0.62    1.00
  WS02006242WS02006240 CONDUIT    288.75     0  03:21      0.75    1.15    1.00
  WS02006240WS02006239 CONDUIT    288.95     0  03:21      0.75    0.91    1.00
  WS02006239WS02006238 CONDUIT    289.05     0  03:21      0.75    0.92    1.00
  WS02006238WS02006235 CONDUIT    289.07     0  03:21      0.75    0.65    1.00
  WS02006235WS02006234 CONDUIT    376.98     0  03:20      0.98    3.98    1.00
  WS02006234WS02006232 CONDUIT    377.13     0  03:21      0.98    0.76    1.00
  WS02006232WS02006231 CONDUIT    377.15     0  03:21      1.00    0.79    1.00
  WS02006231WS02006230 CONDUIT    378.11     0  03:21      1.29    5.74    0.98
  WS02006230WS02006229 CONDUIT    389.93     0  03:21      1.01    8.68    1.00
  WS02006228WS02006109 CONDUIT    561.86     0  02:11      1.12    2.45    1.00
  WS02006116WS02004401 CONDUIT    571.02     0  02:13      0.82    0.79    0.87
  WS02006115WS02006116 CONDUIT    571.56     0  02:23      0.88    0.73    0.79
  WS02006113WS02006111 CONDUIT    587.67     0  02:12      2.50    0.70    0.47
  WS02006112WS02006115 CONDUIT    582.44     0  02:33      0.79    0.34    0.89
  WS02006111WS02006112 CONDUIT    567.82     0  02:12      1.57    0.27    0.68
  WS02006110WS02006113 CONDUIT    563.38     0  02:11      1.32    0.51    0.79
  WS02006109WS02006110 CONDUIT    563.08     0  02:11      1.12    1.08    1.00
  WS02004411WS02004412 CONDUIT    570.77     0  02:17      0.95    0.81    0.71
  WS02004401WS02004402 CONDUIT    570.96     0  02:14      0.85    0.69    0.89
  WS02004413WS02003067 CONDUIT    570.74     0  02:17      1.15    0.24    0.61
  WS02004412WS02004413 CONDUIT    570.75     0  02:17      0.85    0.38    0.79
  WS02004410WS02004411 CONDUIT    570.83     0  02:16      0.96    0.78    0.71
  WS02004409WS02004410 CONDUIT    570.93     0  02:15      0.98    0.74    0.70
  WS02004407WS02004409 CONDUIT    571.10     0  02:15      1.46    0.20    0.50
  WS02004406WS02004407 CONDUIT    571.10     0  02:15      1.08    0.26    0.64
  WS02004405WS02004406 CONDUIT    571.10     0  02:14      0.79    1.13    0.98
  WS02004404WS02004405 CONDUIT    571.06     0  02:14      0.97    5.59    0.98
  WS02004403WS02004404 CONDUIT    570.90     0  02:14      0.84    0.41    0.95
  WS02004402WS02004403 CONDUIT    570.92     0  02:14      0.87    0.82    0.91
  WS02004139WS02001211 CONDUIT    285.89     0  03:41      0.57    0.36    0.54
  WS02004138WS02004139 CONDUIT    285.00     0  00:13      2.11    0.06    0.39
  WS02003067WS02003066 CONDUIT    570.75     0  02:17      1.25    0.18    0.42
  WS02001213WS02003059 CONDUIT    295.64     0  03:41      0.59    0.49    0.73
  WS02001212WS02001213 CONDUIT    294.54     0  03:42      1.19    0.45    0.42
  WS02001211WS02001212 CONDUIT    293.91     0  03:42      0.67    0.22    0.59
  WS02003072WS02003073 CONDUIT    879.45     0  02:22      1.69    1.90    0.47
  WS02003069WS02003072 CONDUIT    879.46     0  02:22      1.59    0.42    0.49
  WS02003060WS02003069 CONDUIT    879.15     0  02:22      1.84    0.34    0.44
  WS02003059WS02003060 CONDUIT    297.15     0  03:42      0.82    0.19    0.63
  HS02004901HS02004770 CONDUIT     10.69     0  02:07      0.05    0.04    0.33
  HS02004876HS02004881 CONDUIT     42.93     0  02:09      0.66    0.46    0.09
  HS02004870HS02004876 CONDUIT     34.36     0  02:09      0.46    0.02    0.11
  HS02004842HS02004848 CONDUIT      8.21     0  02:50      0.04    0.00    0.28
  HS02004837HS02004842 CONDUIT      8.26     0  02:54      0.42    0.00    0.30
  HS02004830HS02004837 CONDUIT     28.73     0  02:50      0.48    0.03    0.09
  HS02004824HS02004830 CONDUIT     28.88     0  02:51      0.51    0.04    0.08
  HS02004817HS02004824 CONDUIT     54.00     0  02:51      0.18    0.02    0.42
  HS02004770HS02004777 CONDUIT     56.10     0  02:06      0.23    0.10    0.34
  HS02004799HS02004480 CONDUIT    142.45     0  02:07      0.62    0.18    0.33
  HS02004792HS02004799 CONDUIT    129.68     0  02:07      0.71    0.08    0.26
  HS02004788HS02004792 CONDUIT     75.39     0  02:08      0.86    0.05    0.13
  HS02004785HS02004788 CONDUIT     56.04     0  02:08      0.53    0.42    0.15
  HS02004777HS02004785 CONDUIT     55.93     0  02:07      0.29    0.07    0.28
  HS02004480HS02004478 CONDUIT    169.06     0  02:08      1.00    0.71    0.24
  HS02004479HS02004480 CONDUIT     26.90     0  02:10      0.27    0.03    0.32
  HS02004862HS02004870 CONDUIT     25.84     0  02:10      0.52    0.03    0.07
  HS02004848HS02004852 CONDUIT     11.36     0  02:50      0.35    0.01    0.05
  HS02004856HS02004862 CONDUIT     17.49     0  02:10      0.38    0.02    0.07
  HS02004852HS02004856 CONDUIT     11.35     0  02:51      0.16    0.01    0.10
  HS02004802HS02004478 CONDUIT     69.48     0  02:52      0.37    0.06    0.27
  HS02004478WS02006287 CONDUIT    235.36     0  02:09      1.39    0.07    0.19
  HS02004817HS02004807 CONDUIT     54.61     0  02:52      0.15    0.03    0.54
  HS02004807HS02004802 CONDUIT     69.45     0  02:51      0.31    0.13    0.32
  YS02001759YS02001757 CONDUIT    504.62     0  02:56      0.64    0.36    1.00
  YS02001762YS02001759 CONDUIT    259.27     0  02:56      0.33    0.30    1.00
  YS02001765YS02001762 CONDUIT    258.84     0  02:56      0.33    0.24    1.00
  YS02001770YS02001767 CONDUIT    257.87     0  02:57      0.36    1.02    1.00
  YS02001774YS02001770 CONDUIT     86.41     0  03:40      0.23    0.06    1.00
  YS02001779YS02001774 CONDUIT     86.48     0  03:40      0.11    0.04    1.00
  YS02001649YS02001757 CONDUIT    788.06     0  02:52      1.00    0.48    1.00
  YS02001767YS02001765 CONDUIT    258.51     0  02:56      0.35    0.33    1.00
  YS02006561YS02001783 CONDUIT    834.95     0  03:02      2.14    0.43    0.83
  YS02001783YS02001784 CONDUIT    834.87     0  03:02      1.70    1.15    1.00
  YS02001784YS02001785 CONDUIT    835.92     0  03:02      1.84    1.95    1.00
  YS02001788YS02001790 CONDUIT    837.03     0  03:03      2.39    0.62    1.00
  YS02001790YS02001791 CONDUIT    875.50     0  03:01      2.97    0.95    1.00
  YS02001791YS02001793 CONDUIT    856.02     0  03:01      5.92    0.37    1.00
  YS02001910YS02001907 CONDUIT    287.84     0  03:05      0.49    0.16    1.00
  YS02001786YS02001788 CONDUIT    836.12     0  03:02      2.28    1.61    1.00
  YS02001915YS02001910 CONDUIT    286.53     0  03:03      0.54    0.14    0.90
  YS02001918YS02001915 CONDUIT    111.00     0  03:21      0.44    0.06    0.62
  YS02001923YS02001920 CONDUIT    107.51     0  03:09      0.64    0.05    0.38
  YS02001926YS02001923 CONDUIT     95.50     0  03:01      0.76    0.14    0.22
  YS02001929YS02001926 CONDUIT     95.65     0  03:01      0.82    0.05    0.21
  YS02001920YS02001918 CONDUIT    112.88     0  03:11      0.63    0.11    0.48
  YS02001629YS02163301 CONDUIT    205.43     0  02:32      0.26    0.25    1.00
  YS02001619YS02001622 CONDUIT    180.91     0  03:00      0.63    0.27    1.00
  YS02001622YS02001625 CONDUIT    210.01     0  02:29      0.30    0.11    1.00
  YS02001625YS02001629 CONDUIT    210.02     0  02:29      0.27    0.10    1.00
  YS02163301YS02001633 CONDUIT    205.50     0  02:32      0.26    0.19    1.00
  YS02163601YS02164001 CONDUIT    376.63     0  02:53      0.48    0.33    1.00
  YS02164001YS02001641 CONDUIT    377.26     0  02:53      0.48    0.52    1.00
  YS02001641YS02001644 CONDUIT    377.65     0  02:53      0.48    1.22    1.00
  YS02001647YS02001649 CONDUIT    572.58     0  02:53      0.73    0.30    1.00
  YS02006553YS02006556 CONDUIT    581.03     0  03:06      0.74    0.50    1.00
  YS02006556YS02006558 CONDUIT    581.04     0  03:06      0.74    0.46    1.00
  YSB6556YSB1171       CONDUIT     15.34     0  02:10      0.07    0.02    0.59
  YS02001907YS02006553 CONDUIT    581.02     0  03:06      0.65    0.68    1.00
  YS02006558YS02006561 CONDUIT    835.29     0  03:02      3.32    1.85    0.94
  YS02001633YS02163601 CONDUIT    376.27     0  02:53      0.48    0.39    1.00
  YS02001644YS02001647 CONDUIT    572.26     0  02:53      0.73    0.34    1.00
  YS02001745YS02001748 CONDUIT    492.53     0  02:43      1.47    0.19    0.93
  YS02001748YS02001751 CONDUIT    446.00     0  02:26      1.07    0.23    1.00
  YS02001751YS02001754 CONDUIT    227.90     0  02:37      0.94    0.11    1.00
  YS02001754YS02001757 CONDUIT    228.20     0  02:37      0.33    0.09    1.00
  YS02001882YS02001884 CONDUIT     12.82     0  02:28      0.12    0.01    0.84
  YS02001884YS02001887 CONDUIT     20.52     0  02:26      0.08    0.03    0.93
  YS02001890YS02001895 CONDUIT    299.48     0  03:01      0.44    0.14    0.89
  YS02001895YS02001898 CONDUIT    298.02     0  03:00      0.56    0.52    0.76
  YS02001898YS02001901 CONDUIT    297.35     0  03:02      0.48    0.19    0.84
  YS02001901YS02001904 CONDUIT    297.80     0  03:01      0.45    0.46    0.89
  YS02001904YS02001907 CONDUIT    297.95     0  03:02      0.39    0.10    0.94
  YS02001887YS02001890 CONDUIT    300.32     0  02:56      0.40    0.51    0.98
  YS02001652YS02001649 CONDUIT    287.12     0  02:36      0.57    0.14    1.00
  YS02001655YS02001652 CONDUIT    287.38     0  02:36      1.01    0.14    1.00
  YS02001658YS02001655 CONDUIT    395.43     0  02:31      1.24    0.17    1.00
  YS02001661YS02001658 CONDUIT    622.04     0  02:36      1.54    0.24    1.00
  YS02001664YS02001661 CONDUIT    623.82     0  02:55      1.46    0.20    0.70
  YSB1154YSB6556       CONDUIT     15.25     0  02:08      0.19    0.03    0.48
  YSB1174YSB1171       CONDUIT     11.67     0  02:06      0.05    0.02    0.60
  YSB1171HS02004479    CONDUIT     26.80     0  02:10      0.54    0.02    0.46
  HS02004881HS02006253 CONDUIT     47.50     0  02:09      1.65    0.01    0.25
  YS02001793JiankangQianchi CONDUIT    828.50     0  02:58     16.40    0.07    1.00
  YS02001757CaochengTiaoxuchi CONDUIT   1467.81     0  02:52      1.98    0.64    1.00
  WSF200WS02003060     CONDUIT    570.78     0  02:18      1.68    0.13    0.34
  1                    CONDUIT    881.28     0  02:23      3.22    0.31    0.38
  2                    CONDUIT    148.59     0  03:11      5.40    0.36    0.41
  3                    CONDUIT    515.47     0  03:08      9.84    0.82    0.69
  4                    CONDUIT      0.00     0  00:00      0.00    0.00    0.00
  CC-Pump-1            PUMP       200.00     0  01:49              1.00
  CC-Pump-2            PUMP       200.00     0  03:10              1.00
  JK-Pump-1            PUMP       300.00     0  00:10              1.00
  JK-Pump-2            PUMP       300.00     0  01:57              1.00
  XR-Pump-1            PUMP        95.00     0  00:10              1.00
  XR-Pump-2            PUMP        95.00     0  00:10              1.00
  XR-Pump-3            PUMP        95.00     0  00:50              1.00
  XR-Pump-4            PUMP        95.00     0  00:10              1.00
  
  
  ***************************
  Flow Classification Summary
  ***************************
  
  -------------------------------------------------------------------------------------
                      Adjusted    ---------- Fraction of Time in Flow Class ---------- 
                       /Actual         Up    Down  Sub   Sup   Up    Down  Norm  Inlet 
  Conduit               Length    Dry  Dry   Dry   Crit  Crit  Crit  Crit  Ltd   Ctrl  
  -------------------------------------------------------------------------------------
  WS02003066WSF200        1.00   0.05  0.00  0.00  0.00  0.95  0.00  0.00  0.62  0.00
  WS02006287WS02006284    1.00   0.03  0.01  0.00  0.56  0.40  0.00  0.00  0.64  0.00
  WS02006284WS02006280    1.00   0.04  0.00  0.00  0.00  0.00  0.00  0.96  0.00  0.00
  WS02006280WS02006229    1.00   0.04  0.00  0.00  0.00  0.00  0.00  0.96  0.00  0.00
  WS02006229WS02006228    1.00   0.00  0.00  0.00  1.00  0.00  0.00  0.00  0.00  0.00
  WS02006256WS02006235    1.00   0.00  0.00  0.00  1.00  0.00  0.00  0.00  0.00  0.00
  WS02006253WS02006251    1.00   0.02  0.01  0.00  0.96  0.00  0.00  0.00  0.00  0.00
  WS02006252WS02006251    1.00   0.06  0.00  0.00  0.00  0.00  0.94  0.00  0.00  0.00
  WS02006251WS02006249    1.00   0.00  0.00  0.00  1.00  0.00  0.00  0.00  0.22  0.00
  WS02006249WS02006248    1.00   0.00  0.01  0.00  0.93  0.00  0.06  0.00  0.00  0.00
  WS02006248WS02006247    1.00   0.01  0.00  0.00  0.98  0.00  0.00  0.01  0.11  0.00
  WS02006247WS02006245    1.00   0.01  0.00  0.00  0.99  0.00  0.00  0.00  0.00  0.00
  WS02006245WS02006243    1.00   0.01  0.00  0.00  0.96  0.00  0.00  0.03  0.01  0.00
  WS02006243WS02006242    1.00   0.00  0.00  0.00  0.99  0.00  0.00  0.00  0.17  0.00
  WS02006242WS02006240    1.00   0.00  0.00  0.00  1.00  0.00  0.00  0.00  0.00  0.00
  WS02006240WS02006239    1.00   0.00  0.00  0.00  0.97  0.00  0.00  0.02  0.01  0.00
  WS02006239WS02006238    1.00   0.00  0.00  0.00  1.00  0.00  0.00  0.00  0.00  0.00
  WS02006238WS02006235    1.00   0.00  0.00  0.00  1.00  0.00  0.00  0.00  0.00  0.00
  WS02006235WS02006234    1.00   0.00  0.00  0.00  0.97  0.00  0.03  0.00  0.00  0.00
  WS02006234WS02006232    1.00   0.00  0.00  0.00  1.00  0.00  0.00  0.00  0.00  0.00
  WS02006232WS02006231    1.00   0.00  0.00  0.00  1.00  0.00  0.00  0.00  0.00  0.00
  WS02006231WS02006230    1.00   0.00  0.00  0.00  0.52  0.00  0.48  0.00  0.00  0.00
  WS02006230WS02006229    1.00   0.00  0.00  0.00  0.99  0.00  0.00  0.01  0.01  0.00
  WS02006228WS02006109    1.00   0.00  0.00  0.00  1.00  0.00  0.00  0.00  0.00  0.00
  WS02006116WS02004401    1.00   0.02  0.00  0.00  0.98  0.00  0.00  0.00  0.00  0.00
  WS02006115WS02006116    1.00   0.02  0.00  0.00  0.98  0.00  0.00  0.00  0.00  0.00
  WS02006113WS02006111    1.00   0.01  0.00  0.00  0.00  0.99  0.00  0.00  0.12  0.00
  WS02006112WS02006115    1.00   0.01  0.01  0.00  0.98  0.00  0.00  0.00  0.00  0.00
  WS02006111WS02006112    1.00   0.01  0.00  0.00  0.98  0.00  0.00  0.00  0.97  0.00
  WS02006110WS02006113    1.00   0.00  0.01  0.00  0.99  0.00  0.00  0.00  0.00  0.00
  WS02006109WS02006110    1.00   0.00  0.00  0.00  0.99  0.00  0.01  0.00  0.00  0.00
  WS02004411WS02004412    1.00   0.03  0.00  0.00  0.97  0.00  0.00  0.00  0.00  0.00
  WS02004401WS02004402    1.00   0.02  0.00  0.00  0.98  0.00  0.00  0.00  0.00  0.00
  WS02004413WS02003067    1.00   0.03  0.01  0.00  0.00  0.00  0.96  0.00  0.00  0.00
  WS02004412WS02004413    1.00   0.03  0.00  0.00  0.97  0.00  0.00  0.00  0.02  0.00
  WS02004410WS02004411    1.00   0.03  0.00  0.00  0.97  0.00  0.00  0.00  0.02  0.00
  WS02004409WS02004410    1.00   0.03  0.00  0.00  0.97  0.00  0.00  0.00  0.03  0.00
  WS02004407WS02004409    1.00   0.03  0.00  0.00  0.97  0.00  0.00  0.00  0.92  0.00
  WS02004406WS02004407    1.00   0.00  0.03  0.00  0.97  0.00  0.00  0.00  0.00  0.00
  WS02004405WS02004406    1.00   0.00  0.00  0.00  1.00  0.00  0.00  0.00  0.01  0.00
  WS02004404WS02004405    1.00   0.00  0.00  0.00  1.00  0.00  0.00  0.00  0.00  0.00
  WS02004403WS02004404    1.00   0.00  0.02  0.00  0.98  0.00  0.00  0.00  0.00  0.00
  WS02004402WS02004403    1.00   0.02  0.00  0.00  0.98  0.00  0.00  0.00  0.00  0.00
  WS02004139WS02001211    1.00   0.00  0.00  0.00  1.00  0.00  0.00  0.00  0.00  0.00
  WS02004138WS02004139    1.00   0.00  0.00  0.00  0.99  0.01  0.00  0.00  0.99  0.00
  WS02003067WS02003066    1.00   0.04  0.00  0.00  0.96  0.00  0.00  0.00  0.00  0.00
  WS02001213WS02003059    1.00   0.00  0.00  0.00  1.00  0.00  0.00  0.00  0.00  0.00
  WS02001212WS02001213    1.00   0.00  0.00  0.00  0.92  0.00  0.08  0.00  0.00  0.00
  WS02001211WS02001212    1.00   0.00  0.00  0.00  1.00  0.00  0.00  0.00  0.00  0.00
  WS02003072WS02003073    1.00   0.00  0.00  0.00  0.00  0.00  0.00  1.00  0.00  0.00
  WS02003069WS02003072    1.00   0.00  0.00  0.00  1.00  0.00  0.00  0.00  0.21  0.00
  WS02003060WS02003069    1.00   0.00  0.00  0.00  0.99  0.01  0.00  0.00  0.03  0.00
  WS02003059WS02003060    1.00   0.00  0.00  0.00  1.00  0.00  0.00  0.00  0.01  0.00
  HS02004901HS02004770    1.00   0.04  0.00  0.00  0.96  0.00  0.00  0.00  0.00  0.00
  HS02004876HS02004881    1.00   0.01  0.00  0.00  0.99  0.00  0.00  0.00  0.00  0.00
  HS02004870HS02004876    1.00   0.00  0.00  0.00  0.99  0.01  0.00  0.00  0.95  0.00
  HS02004842HS02004848    1.00   0.00  0.04  0.00  0.96  0.00  0.00  0.00  0.59  0.00
  HS02004837HS02004842    1.00   0.00  0.00  0.00  1.00  0.00  0.00  0.00  0.11  0.00
  HS02004830HS02004837    1.00   0.00  0.00  0.00  1.00  0.00  0.00  0.00  0.99  0.00
  HS02004824HS02004830    1.00   0.00  0.00  0.00  1.00  0.00  0.00  0.00  0.00  0.00
  HS02004817HS02004824    1.00   0.00  0.00  0.00  1.00  0.00  0.00  0.00  1.00  0.00
  HS02004770HS02004777    1.00   0.00  0.04  0.00  0.96  0.00  0.00  0.00  0.03  0.00
  HS02004799HS02004480    1.00   0.00  0.02  0.00  0.96  0.00  0.02  0.00  0.00  0.00
  HS02004792HS02004799    1.00   0.00  0.00  0.00  1.00  0.00  0.00  0.00  0.98  0.00
  HS02004788HS02004792    1.00   0.00  0.00  0.00  1.00  0.00  0.00  0.00  0.98  0.00
  HS02004785HS02004788    1.00   0.00  0.00  0.00  1.00  0.00  0.00  0.00  0.00  0.00
  HS02004777HS02004785    1.00   0.00  0.00  0.00  1.00  0.00  0.00  0.00  0.13  0.00
  HS02004480HS02004478    1.00   0.04  0.00  0.00  0.61  0.00  0.00  0.35  0.00  0.00
  HS02004479HS02004480    1.00   0.02  0.00  0.00  0.98  0.00  0.00  0.00  0.12  0.00
  HS02004862HS02004870    1.00   0.00  0.00  0.00  1.00  0.00  0.00  0.00  0.04  0.00
  HS02004848HS02004852    1.00   0.04  0.00  0.00  0.96  0.00  0.00  0.00  0.73  0.00
  HS02004856HS02004862    1.00   0.00  0.05  0.00  0.95  0.00  0.00  0.00  0.82  0.00
  HS02004852HS02004856    1.00   0.04  0.00  0.00  0.96  0.00  0.00  0.00  0.86  0.00
  HS02004802HS02004478    1.00   0.04  0.00  0.00  0.96  0.00  0.00  0.00  0.02  0.00
  HS02004478WS02006287    1.00   0.04  0.00  0.00  0.69  0.27  0.00  0.00  0.66  0.00
  HS02004817HS02004807    1.00   0.00  0.04  0.00  0.96  0.00  0.00  0.00  0.01  0.00
  HS02004807HS02004802    1.00   0.04  0.00  0.00  0.96  0.00  0.00  0.00  0.00  0.00
  YS02001759YS02001757    1.00   0.00  0.00  0.00  1.00  0.00  0.00  0.00  0.16  0.00
  YS02001762YS02001759    1.00   0.00  0.00  0.00  1.00  0.00  0.00  0.00  0.03  0.00
  YS02001765YS02001762    1.00   0.00  0.00  0.00  1.00  0.00  0.00  0.00  0.14  0.00
  YS02001770YS02001767    1.00   0.00  0.00  0.00  1.00  0.00  0.00  0.00  0.00  0.00
  YS02001774YS02001770    1.00   0.00  0.04  0.00  0.96  0.00  0.00  0.00  0.03  0.00
  YS02001779YS02001774    1.00   0.00  0.00  0.00  1.00  0.00  0.00  0.00  0.19  0.00
  YS02001649YS02001757    1.00   0.00  0.00  0.00  1.00  0.00  0.00  0.00  0.16  0.00
  YS02001767YS02001765    1.00   0.00  0.00  0.00  1.00  0.00  0.00  0.00  0.00  0.00
  YS02006561YS02001783    1.00   0.05  0.00  0.00  0.36  0.59  0.00  0.00  0.62  0.00
  YS02001783YS02001784    1.00   0.00  0.05  0.00  0.95  0.00  0.00  0.00  0.00  0.00
  YS02001784YS02001785    1.00   0.00  0.00  0.00  1.00  0.00  0.00  0.00  0.18  0.00
  YS02001788YS02001790    1.00   0.00  0.00  0.00  0.36  0.64  0.00  0.00  0.54  0.00
  YS02001790YS02001791    1.00   0.00  0.00  0.00  0.33  0.67  0.00  0.00  0.46  0.00
  YS02001791YS02001793    1.00   0.00  0.00  0.00  0.35  0.65  0.00  0.00  0.02  0.00
  YS02001910YS02001907    1.00   0.00  0.00  0.00  0.98  0.00  0.00  0.02  0.12  0.00
  YS02001786YS02001788    1.00   0.00  0.00  0.00  0.34  0.66  0.00  0.00  0.00  0.00
  YS02001915YS02001910    1.00   0.00  0.00  0.00  0.98  0.02  0.00  0.00  0.17  0.00
  YS02001918YS02001915    1.00   0.00  0.00  0.00  0.98  0.01  0.00  0.00  0.61  0.00
  YS02001923YS02001920    1.00   0.00  0.00  0.00  1.00  0.00  0.00  0.00  0.93  0.00
  YS02001926YS02001923    1.00   0.00  0.03  0.00  0.00  0.00  0.97  0.00  0.00  0.00
  YS02001929YS02001926    1.00   0.00  0.04  0.00  0.96  0.00  0.00  0.00  0.87  0.00
  YS02001920YS02001918    1.00   0.00  0.00  0.00  1.00  0.00  0.00  0.00  0.00  0.00
  YS02001629YS02163301    1.00   0.04  0.00  0.00  0.96  0.00  0.00  0.00  0.00  0.00
  YS02001619YS02001622    1.00   0.04  0.00  0.00  0.96  0.00  0.00  0.00  0.00  0.00
  YS02001622YS02001625    1.00   0.04  0.00  0.00  0.96  0.00  0.00  0.00  0.05  0.00
  YS02001625YS02001629    1.00   0.04  0.01  0.00  0.94  0.00  0.02  0.00  0.00  0.00
  YS02163301YS02001633    1.00   0.00  0.04  0.00  0.96  0.00  0.00  0.00  0.00  0.00
  YS02163601YS02164001    1.00   0.00  0.03  0.00  0.97  0.00  0.00  0.00  0.00  0.00
  YS02164001YS02001641    1.00   0.00  0.03  0.00  0.97  0.00  0.00  0.00  0.06  0.00
  YS02001641YS02001644    1.00   0.00  0.00  0.00  1.00  0.00  0.00  0.00  0.00  0.00
  YS02001647YS02001649    1.00   0.00  0.05  0.00  0.95  0.00  0.00  0.00  0.01  0.00
  YS02006553YS02006556    1.00   0.00  0.00  0.00  1.00  0.00  0.00  0.00  0.03  0.00
  YS02006556YS02006558    1.00   0.00  0.00  0.00  1.00  0.00  0.00  0.00  0.00  0.00
  YSB6556YSB1171          1.00   0.02  0.01  0.00  0.96  0.00  0.00  0.00  0.00  0.00
  YS02001907YS02006553    1.00   0.00  0.01  0.00  0.99  0.00  0.00  0.00  0.00  0.00
  YS02006558YS02006561    1.00   0.05  0.00  0.00  0.04  0.92  0.00  0.00  0.53  0.00
  YS02001633YS02163601    1.00   0.00  0.00  0.00  1.00  0.00  0.00  0.00  0.16  0.00
  YS02001644YS02001647    1.00   0.00  0.05  0.00  0.95  0.00  0.00  0.00  0.00  0.00
  YS02001745YS02001748    1.00   0.00  0.00  0.00  0.89  0.01  0.00  0.10  0.05  0.00
  YS02001748YS02001751    1.00   0.00  0.00  0.00  0.98  0.02  0.00  0.00  0.15  0.00
  YS02001751YS02001754    1.00   0.00  0.00  0.00  0.95  0.00  0.00  0.05  0.02  0.00
  YS02001754YS02001757    1.00   0.00  0.00  0.00  1.00  0.00  0.00  0.00  0.18  0.00
  YS02001882YS02001884    1.00   0.04  0.00  0.00  0.96  0.00  0.00  0.00  0.00  0.00
  YS02001884YS02001887    1.00   0.03  0.01  0.00  0.96  0.00  0.00  0.00  0.00  0.00
  YS02001890YS02001895    1.00   0.00  0.04  0.00  0.96  0.00  0.00  0.00  0.00  0.00
  YS02001895YS02001898    1.00   0.04  0.00  0.00  0.95  0.00  0.01  0.00  0.00  0.00
  YS02001898YS02001901    1.00   0.04  0.00  0.00  0.96  0.00  0.00  0.00  0.01  0.00
  YS02001901YS02001904    1.00   0.04  0.00  0.00  0.96  0.00  0.00  0.00  0.00  0.00
  YS02001904YS02001907    1.00   0.00  0.04  0.00  0.96  0.00  0.00  0.00  0.00  0.00
  YS02001887YS02001890    1.00   0.00  0.00  0.00  0.98  0.00  0.02  0.00  0.00  0.00
  YS02001652YS02001649    1.00   0.00  0.00  0.00  1.00  0.00  0.00  0.00  0.17  0.00
  YS02001655YS02001652    1.00   0.00  0.00  0.00  0.95  0.00  0.00  0.05  0.02  0.00
  YS02001658YS02001655    1.00   0.00  0.04  0.00  0.94  0.02  0.00  0.00  0.06  0.00
  YS02001661YS02001658    1.00   0.04  0.00  0.00  0.89  0.07  0.00  0.00  0.08  0.00
  YS02001664YS02001661    1.00   0.04  0.00  0.00  0.85  0.12  0.00  0.00  0.22  0.00
  YSB1154YSB6556          1.00   0.04  0.00  0.00  0.96  0.00  0.00  0.00  0.02  0.00
  YSB1174YSB1171          1.00   0.03  0.01  0.00  0.97  0.00  0.00  0.00  0.00  0.00
  YSB1171HS02004479       1.00   0.02  0.00  0.00  0.97  0.00  0.00  0.00  0.11  0.00
  HS02004881HS02006253    1.00   0.03  0.00  0.00  0.91  0.00  0.00  0.06  0.74  0.00
  YS02001793JiankangQianchi    1.00   0.00  0.00  0.00  0.53  0.47  0.00  0.00  0.18  0.00
  YS02001757CaochengTiaoxuchi    1.00   0.00  0.06  0.00  0.94  0.00  0.00  0.00  0.00  0.00
  WSF200WS02003060        1.00   0.00  0.05  0.00  0.95  0.01  0.00  0.00  0.18  0.00
  1                       1.00   0.00  0.00  0.00  0.00  1.00  0.00  0.00  0.25  0.00
  2                       1.00   0.73  0.00  0.00  0.00  0.27  0.00  0.00  0.01  0.00
  3                       1.00   0.06  0.00  0.00  0.00  0.94  0.00  0.00  0.18  0.00
  4                       1.00   1.00  0.00  0.00  0.00  0.00  0.00  0.00  0.00  0.00
  
  
  *************************
  Conduit Surcharge Summary
  *************************
  
  ----------------------------------------------------------------------------
                                                           Hours        Hours 
                         --------- Hours Full --------   Above Full   Capacity
  Conduit                Both Ends  Upstream  Dnstream   Normal Flow   Limited
  ----------------------------------------------------------------------------
  WS02006229WS02006228        1.76      1.79      1.76      6.03         1.76
  WS02006256WS02006235        6.38      6.39      7.98      4.09         0.01
  WS02006252WS02006251        0.26      0.26      0.42      0.38         0.01
  WS02006251WS02006249        0.01      0.01      0.01      0.30         0.01
  WS02006249WS02006248        0.01      0.01      0.01      5.89         0.01
  WS02006247WS02006245        0.01      0.01      0.01      5.96         0.01
  WS02006243WS02006242        0.06      0.06      1.40      0.01         0.01
  WS02006242WS02006240        1.19      1.19      1.48      0.45         0.01
  WS02006240WS02006239        1.31      1.31      1.38      0.01         0.01
  WS02006239WS02006238        1.51      1.51      1.56      0.01         0.01
  WS02006238WS02006235        1.54      1.54      1.60      0.01         0.01
  WS02006235WS02006234        1.35      1.35      1.52      6.39         0.01
  WS02006234WS02006232        1.45      1.45      1.67      0.01         0.01
  WS02006232WS02006231        0.08      0.08      1.67      0.01         0.01
  WS02006231WS02006230        0.01      0.01      0.86      6.46         0.01
  WS02006230WS02006229        2.17      5.00      2.17      6.60         2.17
  WS02006228WS02006109        1.77      1.89      1.77      6.16         1.77
  WS02006112WS02006115        0.01      0.01      1.39      0.01         0.01
  WS02006111WS02006112        0.01      0.01      6.04      0.01         0.01
  WS02006110WS02006113        0.01      0.01      1.83      0.01         0.01
  WS02006109WS02006110        1.19      1.19      1.89      1.20         0.01
  WS02004405WS02004406        0.01      0.01      0.01      1.29         0.01
  WS02004404WS02004405        0.01      0.01      0.01      6.34         0.01
  WS02003072WS02003073        0.01      0.01      0.01      6.02         0.01
  YS02001759YS02001757        5.99      5.99      6.08      0.01         0.01
  YS02001762YS02001759        5.97      5.97      5.99      0.01         0.01
  YS02001765YS02001762        5.93      5.93      5.97      0.01         0.01
  YS02001770YS02001767        5.91      5.91      5.91      0.10         0.78
  YS02001774YS02001770        5.89      5.89      5.96      0.01         0.01
  YS02001779YS02001774        5.69      5.69      5.96      0.01         0.01
  YS02001649YS02001757        5.97      5.97      6.08      0.01         0.01
  YS02001767YS02001765        5.91      5.91      5.93      0.01         0.01
  YS02006561YS02001783        0.01      0.01      0.39      0.01         0.01
  YS02001783YS02001784        0.39      0.39      0.44      0.63         0.13
  YS02001784YS02001785        0.39      0.44      0.39      1.84         0.39
  YS02001788YS02001790        0.37      0.37      1.77      0.01         0.01
  YS02001790YS02001791        1.77      1.77      1.90      0.01         0.01
  YS02001791YS02001793        1.90      1.90      2.19      0.01         0.01
  YS02001910YS02001907        0.06      0.06      1.19      0.01         0.01
  YS02001786YS02001788        0.37      0.39      0.37      1.41         0.37
  YS02001915YS02001910        0.01      0.01      0.06      0.01         0.01
  YS02001629YS02163301        5.89      5.89      5.90      0.01         0.01
  YS02001619YS02001622        5.42      5.42      5.47      0.01         0.02
  YS02001622YS02001625        5.47      5.47      5.75      0.01         0.01
  YS02001625YS02001629        5.44      5.44      5.75      0.01         0.01
  YS02163301YS02001633        5.90      5.90      5.94      0.01         0.01
  YS02163601YS02164001        5.94      5.94      5.97      0.01         0.01
  YS02164001YS02001641        5.94      5.94      5.95      0.01         0.02
  YS02001641YS02001644        5.95      5.95      5.95      0.74         1.02
  YS02001647YS02001649        5.74      5.74      5.97      0.01         0.01
  YS02006553YS02006556        0.66      0.66      1.28      0.01         0.01
  YS02006556YS02006558        0.98      0.98      1.36      0.01         0.01
  YS02001907YS02006553        1.85      1.85      2.06      0.01         0.01
  YS02006558YS02006561        0.01      0.60      0.01      1.69         0.01
  YS02001633YS02163601        5.93      5.93      5.97      0.01         0.01
  YS02001644YS02001647        5.74      5.74      5.95      0.01         0.01
  YS02001745YS02001748        0.01      0.01      5.19      0.01         0.01
  YS02001748YS02001751        5.25      5.25      5.45      0.01         0.01
  YS02001751YS02001754        5.45      5.45      5.71      0.01         0.01
  YS02001754YS02001757        5.74      5.74      6.08      0.01         0.01
  YS02001890YS02001895        0.01      0.01      0.26      0.01         0.01
  YS02001904YS02001907        0.01      0.01      1.31      0.01         0.01
  YS02001652YS02001649        5.76      5.76      5.97      0.01         0.01
  YS02001655YS02001652        5.46      5.46      5.73      0.01         0.01
  YS02001658YS02001655        5.22      5.22      5.46      0.01         0.01
  YS02001661YS02001658        0.18      0.18      5.22      0.01         0.01
  YS02001664YS02001661        0.01      0.01      1.07      0.01         0.01
  YS02001793JiankangQianchi        2.12      2.12      3.34      0.01         0.01
  YS02001757CaochengTiaoxuchi        5.11      5.11      6.08      0.01         0.01
  
  
  ***************
  Pumping Summary
  ***************
  
  ---------------------------------------------------------------------------------------------------------
                                                  Min       Avg       Max     Total     Power    % Time Off
                        Percent   Number of      Flow      Flow      Flow    Volume     Usage    Pump Curve
  Pump                 Utilized   Start-Ups       LPS       LPS       LPS  10^6 ltr     Kw-hr    Low   High
  ---------------------------------------------------------------------------------------------------------
  CC-Pump-1               76.31           1      0.00    197.04    200.00     4.302      5.34    0.0   10.5
  CC-Pump-2                6.25           1      0.00    134.24    200.00     0.240      0.32    0.0    0.0
  JK-Pump-1               43.75           1      0.00    250.18    300.00     1.991     29.04    0.0    0.0
  JK-Pump-2               89.58           1      0.00    238.12    300.00     5.313     59.40    0.0    0.0
  XR-Pump-1               66.67           2      0.00     91.15     95.00     1.710     10.61    0.0    0.0
  XR-Pump-2               43.75           1      0.00     90.56     95.00     1.140     16.47    0.0    0.0
  XR-Pump-3               89.58           1      0.00     94.13     95.00     2.394     21.16    0.0    0.0
  XR-Pump-4               97.92           1      0.00     94.00     95.00     2.622     24.12    0.0    0.0
  

  Analysis begun on:  Wed Dec 15 10:36:55 2021
  Analysis ended on:  Wed Dec 15 10:37:00 2021
  Total elapsed time: 00:00:05