
  EPA STORM WATER MANAGEMENT MODEL - VERSION 5.1 (Build 5.3.0.dev0)
  --------------------------------------------------------------

  WARNING 04: minimum elevation drop used for Conduit WS02004404WS02004405
  WARNING 03: negative offset ignored for Link YS02001904YS02001907
  
  *********************************************************
  NOTE: The summary statistics displayed in this report are
  based on results found at every computational time step,  
  not just on results from each reporting time step.
  *********************************************************
  
  ****************
  Analysis Options
  ****************
  Flow Units ............... LPS
  Process Models:
    Rainfall/Runoff ........ YES
    RDII ................... NO
    Snowmelt ............... NO
    Groundwater ............ NO
    Flow Routing ........... YES
    Ponding Allowed ........ NO
    Water Quality .......... NO
  Infiltration Method ...... HORTON
  Flow Routing Method ...... DYNWAVE
  Surcharge Method ......... EXTRAN
  Starting Date ............ 08/28/2015 08:00:00
  Ending Date .............. 08/28/2015 16:00:00
  Antecedent Dry Days ...... 8.0
  Report Time Step ......... 00:01:00
  Wet Time Step ............ 00:01:00
  Dry Time Step ............ 00:01:00
  Routing Time Step ........ 5.00 sec
  Variable Time Step ....... YES
  Maximum Trials ........... 8
  Number of Threads ........ 4
  Head Tolerance ........... 0.001500 m
  
  
  **************************        Volume         Depth
  Runoff Quantity Continuity     hectare-m            mm
  **************************     ---------       -------
  Total Precipitation ......         5.493        12.027
  Evaporation Loss .........         0.000         0.000
  Infiltration Loss ........         1.412         3.092
  Surface Runoff ...........         3.089         6.763
  Final Storage ............         0.993         2.174
  Continuity Error (%) .....        -0.014
  
  
  **************************        Volume        Volume
  Flow Routing Continuity        hectare-m      10^6 ltr
  **************************     ---------     ---------
  Dry Weather Inflow .......         0.630         6.296
  Wet Weather Inflow .......         3.088        30.878
  Groundwater Inflow .......         0.000         0.000
  RDII Inflow ..............         0.000         0.000
  External Inflow ..........         0.105         1.045
  External Outflow .........         2.317        23.170
  Flooding Loss ............         0.972         9.718
  Evaporation Loss .........         0.000         0.000
  Exfiltration Loss ........         0.000         0.000
  Initial Stored Volume ....         0.076         0.761
  Final Stored Volume ......         0.633         6.326
  Continuity Error (%) .....        -0.601
  
  
  *************************
  Highest Continuity Errors
  *************************
  Node HS02004842 (16.37%)
  Node YS02001884 (9.53%)
  Node YS02001774 (3.34%)
  Node YSB1171 (3.16%)
  Node HS02004817 (2.98%)
  
  
  ***************************
  Time-Step Critical Elements
  ***************************
  Link WS02006252WS02006251 (60.95%)
  Link 3 (33.47%)
  Link WS02006238WS02006235 (1.67%)
  
  
  ********************************
  Highest Flow Instability Indexes
  ********************************
  Link YS02163301YS02001633 (39)
  Link YS02001629YS02163301 (39)
  Link YS02163601YS02164001 (39)
  Link YS02001619YS02001622 (36)
  Link YS02164001YS02001641 (36)
  
  
  *************************
  Routing Time Step Summary
  *************************
  Minimum Time Step           :     0.10 sec
  Average Time Step           :     0.76 sec
  Maximum Time Step           :     5.00 sec
  Percent in Steady State     :    -0.00
  Average Iterations per Step :     4.51
  Percent Not Converging      :    20.38
  
  
  ***************************
  Subcatchment Runoff Summary
  ***************************
  
  ------------------------------------------------------------------------------------------------------------------------------
                            Total      Total      Total      Total     Imperv       Perv      Total       Total     Peak  Runoff
                           Precip      Runon       Evap      Infil     Runoff     Runoff     Runoff      Runoff   Runoff   Coeff
  Subcatchment                 mm         mm         mm         mm         mm         mm         mm    10^6 ltr      LPS
  ------------------------------------------------------------------------------------------------------------------------------
  sub0                      12.03       0.00       0.00       0.84       9.92       0.00       9.92        0.01     2.03   0.825
  sub1                      12.03       0.00       0.00       1.32       9.45       0.00       9.45        0.06    13.40   0.786
  sub2                      12.03       0.00       0.00       4.45       6.67       0.00       6.67        0.06    12.40   0.555
  sub3                      12.03       0.00       0.00       4.45       6.64       0.00       6.64        0.15    27.80   0.552
  sub4                      12.03       0.00       0.00       1.32       9.31       0.00       9.31        0.19    33.44   0.774
  sub5                      12.03       0.00       0.00       0.84       9.87       0.00       9.87        0.11    23.84   0.821
  sub7                      12.03       0.00       0.00       1.08       9.69       0.00       9.69        0.03     7.67   0.806
  sub8                      12.03       0.00       0.00       1.08       9.68       0.00       9.68        0.06    14.05   0.805
  sub9                      12.03       0.00       0.00       1.08       9.68       0.00       9.68        0.05    10.50   0.805
  sub10                     12.03       0.00       0.00       0.96       9.78       0.00       9.78        0.11    23.44   0.813
  sub11                     12.03       0.00       0.00       0.96       9.79       0.00       9.79        0.11    26.14   0.814
  sub12                     12.03       0.00       0.00       1.56       9.28       0.00       9.28        0.08    19.99   0.771
  sub14                     12.03       0.00       0.00       1.08       9.68       0.00       9.68        0.09    20.64   0.805
  sub15                     12.03       0.00       0.00       3.61       7.44       0.00       7.44        0.13    28.31   0.619
  sub16                     12.03       0.00       0.00       3.97       7.14       0.00       7.14        0.07    18.12   0.594
  sub17                     12.03       0.00       0.00       3.85       7.25       0.00       7.25        0.06    14.90   0.602
  sub22                     12.03       0.00       0.00       5.17       6.07       0.00       6.07        0.38    88.71   0.505
  sub23                     12.03       0.00       0.00       4.45       6.71       0.00       6.71        0.32    74.74   0.558
  sub60                     12.03       0.00       0.00       1.44       7.79       0.00       7.79        2.36   221.95   0.648
  sub61                     12.03       0.00       0.00       2.04       7.89       0.00       7.89        2.43   262.11   0.656
  sub62                     12.03       0.00       0.00       0.96       8.58       0.00       8.58        2.64   273.68   0.714
  sub63                     12.03       0.00       0.00       3.49       6.89       0.00       6.89        2.09   239.63   0.573
  sub64                     12.03       0.00       0.00       1.80       7.48       0.00       7.48        2.27   211.47   0.622
  sub65                     12.03       0.00       0.00       1.56       7.60       0.00       7.60        2.34   215.23   0.632
  sub66                     12.03       0.00       0.00       3.49       6.41       0.00       6.41        1.96   191.04   0.533
  sub67                     12.03       0.00       0.00       0.96       9.03       0.00       9.03        2.79   332.67   0.751
  sub68                     12.03       0.00       0.00       1.68       8.29       0.00       8.29        2.55   285.76   0.689
  sub69                     12.03       0.00       0.00       1.80       8.57       0.00       8.57        2.00   265.64   0.712
  sub70                     12.03       8.75       0.00       6.96      11.50       0.11      11.61        2.66   261.84   0.559
  sub71                     12.03       0.00       0.00       0.96       8.37       0.00       8.37        1.98   195.24   0.696
  sub72                     12.03       0.00       0.00       0.84       6.74       0.00       6.74        1.37   105.11   0.561
  sub73                     12.03      11.30       0.00       7.85      12.66       0.08      12.75        3.00   255.46   0.546
  sub74                     12.03       0.00       0.00       9.02       2.55       0.00       2.55        1.02   143.98   0.212
  
  
  ******************
  Node Depth Summary
  ******************
  
  ---------------------------------------------------------------------------------
                                 Average  Maximum  Maximum  Time of Max    Reported
                                   Depth    Depth      HGL   Occurrence   Max Depth
  Node                 Type       Meters   Meters   Meters  days hr:min      Meters
  ---------------------------------------------------------------------------------
  WS02001211           JUNCTION     0.70     0.74     5.57     0  01:59        0.74
  WS02001212           JUNCTION     0.42     0.47     5.53     0  01:57        0.47
  WS02001213           JUNCTION     0.66     0.73     5.50     0  01:56        0.73
  WS02003069           JUNCTION     0.48     0.59     5.18     0  01:56        0.59
  WS02003072           JUNCTION     0.54     0.65     5.02     0  01:57        0.65
  WS02003073           JUNCTION     0.33     0.40     4.46     0  01:57        0.40
  WS02003060           JUNCTION     0.43     0.52     5.45     0  01:55        0.52
  WS02003066           JUNCTION     0.25     0.33     5.88     0  01:50        0.33
  WS02003059           JUNCTION     0.72     0.79     5.48     0  01:56        0.79
  WS02003067           JUNCTION     0.61     0.74     6.06     0  01:50        0.74
  WS02004401           JUNCTION     0.72     0.97     6.97     0  01:48        0.97
  WS02004402           JUNCTION     0.75     0.99     6.95     0  01:48        0.99
  WS02004403           JUNCTION     0.77     0.99     6.92     0  01:48        0.99
  WS02004404           JUNCTION     0.84     1.05     6.90     0  01:48        1.05
  WS02004406           JUNCTION     0.85     1.03     6.86     0  01:48        1.03
  WS02004409           JUNCTION     0.54     0.75     6.52     0  01:52        0.75
  WS02004410           JUNCTION     0.56     0.76     6.48     0  01:52        0.76
  WS02004411           JUNCTION     0.57     0.76     6.44     0  01:51        0.76
  WS02004412           JUNCTION     0.58     0.76     6.40     0  01:51        0.76
  WS02004413           JUNCTION     0.74     0.91     6.38     0  01:52        0.91
  WS02004405           JUNCTION     0.84     1.04     6.89     0  01:48        1.04
  WS02006109           JUNCTION     0.81     1.10     7.72     0  01:47        1.09
  WS02006110           JUNCTION     0.79     1.03     7.61     0  01:47        1.00
  WS02006111           JUNCTION     0.24     0.35     7.06     0  01:47        0.34
  WS02006112           JUNCTION     0.90     1.21     7.09     0  01:42        1.17
  WS02006113           JUNCTION     0.37     0.51     7.40     0  01:46        0.51
  WS02006115           JUNCTION     0.62     0.88     7.02     0  01:48        0.88
  WS02006116           JUNCTION     0.70     0.95     6.99     0  01:48        0.95
  WS02006230           JUNCTION     0.79     1.16     7.91     0  01:43        1.16
  WS02006231           JUNCTION     0.53     0.83     7.96     0  01:42        0.82
  WS02006232           JUNCTION     0.67     0.95     7.99     0  01:42        0.93
  WS02006234           JUNCTION     0.59     0.86     8.01     0  01:42        0.85
  WS02006235           JUNCTION     0.62     0.88     8.04     0  01:44        0.86
  WS02006238           JUNCTION     0.65     0.90     8.04     0  01:44        0.89
  WS02006240           JUNCTION     0.54     0.79     8.08     0  01:44        0.78
  WS02006242           JUNCTION     0.59     0.83     8.10     0  01:45        0.82
  WS02006243           JUNCTION     0.47     0.70     8.12     0  01:45        0.69
  WS02006245           JUNCTION     0.44     0.67     8.15     0  03:11        0.66
  WS02006247           JUNCTION     0.46     0.70     8.20     0  03:19        0.68
  WS02006248           JUNCTION     0.40     0.61     8.20     0  03:20        0.61
  WS02006249           JUNCTION     0.43     0.62     8.22     0  03:20        0.62
  WS02006239           JUNCTION     0.60     0.86     8.07     0  01:45        0.84
  WS02006251           JUNCTION     0.42     0.64     8.31     0  03:10        0.64
  WS02006252           JUNCTION     0.34     0.59     8.84     0  03:15        0.59
  WS02006253           JUNCTION     0.44     0.67     8.31     0  03:10        0.67
  WS02006256           JUNCTION     1.10     1.22     8.15     0  01:45        1.21
  WS02004138           JUNCTION     0.16     0.17     7.42     0  00:24        0.17
  WS02004407           JUNCTION     0.24     0.33     6.64     0  01:49        0.33
  WS02006228           JUNCTION     0.82     1.16     7.81     0  01:44        1.15
  WS02006229           JUNCTION     0.80     1.17     7.86     0  01:45        1.17
  WS02006280           JUNCTION     0.08     0.19     8.46     0  01:42        0.19
  WS02006284           JUNCTION     0.38     0.54     8.94     0  01:42        0.54
  WS02006287           JUNCTION     0.11     0.28     9.23     0  01:42        0.28
  WSF200               JUNCTION     0.24     0.35     5.58     0  01:52        0.35
  HS02004901           JUNCTION     0.13     0.28    10.10     0  01:39        0.28
  HS02004881           JUNCTION     0.01     0.03     9.06     0  01:43        0.03
  HS02004876           JUNCTION     0.05     0.12     9.15     0  01:43        0.12
  HS02004870           JUNCTION     0.02     0.06     9.35     0  01:43        0.06
  HS02004862           JUNCTION     0.02     0.07     9.45     0  01:44        0.07
  HS02004856           JUNCTION     0.08     0.12     9.55     0  01:44        0.12
  HS02004852           JUNCTION     0.01     0.04     9.56     0  01:52        0.04
  HS02004848           JUNCTION     0.01     0.04     9.64     0  01:51        0.04
  HS02004842           JUNCTION     0.33     0.37     9.64     0  01:51        0.37
  HS02004837           JUNCTION     0.03     0.06     9.64     0  01:51        0.06
  HS02004830           JUNCTION     0.04     0.08     9.55     0  01:45        0.08
  HS02004824           JUNCTION     0.03     0.06     9.46     0  01:54        0.06
  HS02004817           JUNCTION     0.45     0.59     9.43     0  01:43        0.59
  HS02004807           JUNCTION     0.13     0.26     9.43     0  01:43        0.26
  HS02004802           JUNCTION     0.17     0.30     9.42     0  01:43        0.29
  HS02004799           JUNCTION     0.13     0.33     9.54     0  01:40        0.33
  HS02004792           JUNCTION     0.04     0.14     9.66     0  01:40        0.14
  HS02004788           JUNCTION     0.03     0.10    10.00     0  01:40        0.10
  HS02004785           JUNCTION     0.05     0.17    10.07     0  01:40        0.17
  HS02004777           JUNCTION     0.16     0.30    10.10     0  01:39        0.30
  HS02004770           JUNCTION     0.13     0.27    10.10     0  01:39        0.27
  HS02004480           JUNCTION     0.09     0.27     9.51     0  01:41        0.27
  HS02004479           JUNCTION     0.13     0.30     9.51     0  01:40        0.30
  HS02004478           JUNCTION     0.07     0.18     9.41     0  01:42        0.18
  YS02001745           JUNCTION     0.72     0.88     8.39     0  02:55        0.87
  YS02001748           JUNCTION     1.12     2.27     9.35     0  02:07        1.33
  YS02001751           JUNCTION     1.31     2.20     9.08     0  02:00        1.53
  YS02001754           JUNCTION     1.57     2.13     8.74     0  02:09        1.81
  YS02001762           JUNCTION     1.77     2.08     8.48     0  02:08        2.02
  YS02001765           JUNCTION     1.72     2.03     8.48     0  02:08        1.97
  YS02001767           JUNCTION     1.69     1.96     8.45     0  02:08        1.92
  YS02001770           JUNCTION     1.68     1.95     8.44     0  02:08        1.90
  YS02001774           JUNCTION     1.75     2.01     8.43     0  02:09        1.97
  YS02001779           JUNCTION     1.50     1.68     8.37     0  02:00        1.68
  YS02001882           JUNCTION     0.52     1.30     8.02     0  02:37        1.29
  YS02001884           JUNCTION     0.61     1.40     8.02     0  02:36        1.39
  YS02001759           JUNCTION     1.80     2.08     8.44     0  02:09        2.06
  YS02001887           JUNCTION     0.69     1.48     8.02     0  02:37        1.47
  YS02001890           JUNCTION     0.72     1.50     8.01     0  02:36        1.49
  YS02001898           JUNCTION     0.49     1.26     8.00     0  02:37        1.25
  YS02001901           JUNCTION     0.61     1.39     8.00     0  02:37        1.37
  YS02001904           JUNCTION     0.59     1.36     7.99     0  02:37        1.35
  YS02001907           JUNCTION     0.92     1.70     7.99     0  02:37        1.68
  YS02001910           JUNCTION     0.71     1.48     7.99     0  02:36        1.48
  YS02001915           JUNCTION     0.50     1.28     7.99     0  02:36        1.27
  YS02001918           JUNCTION     0.25     0.92     7.99     0  02:36        0.92
  YS02001619           JUNCTION     1.28     1.61     8.54     0  02:02        1.53
  YS02001629           JUNCTION     1.64     1.85     8.40     0  02:04        1.85
  YS02001641           JUNCTION     1.74     1.95     8.39     0  02:10        1.94
  YS02001644           JUNCTION     1.74     1.92     8.35     0  02:04        1.92
  YS02001652           JUNCTION     1.58     2.16     8.76     0  02:25        1.92
  YS02001655           JUNCTION     1.34     2.20     9.05     0  01:57        1.76
  YS02001920           JUNCTION     0.35     0.98     7.99     0  02:36        0.98
  YS02001923           JUNCTION     0.18     0.73     7.99     0  02:36        0.72
  YS02001926           JUNCTION     0.23     0.55     7.99     0  02:35        0.54
  YS02001929           JUNCTION     0.12     0.29     7.99     0  02:37        0.29
  YS02001658           JUNCTION     1.07     2.30     9.44     0  02:03        1.49
  YS02001661           JUNCTION     0.83     2.46     9.86     0  02:27        1.25
  YS02001664           JUNCTION     0.37     0.57     8.50     0  02:22        0.57
  YS02001622           JUNCTION     1.30     1.62     8.52     0  02:02        1.54
  YS02001633           JUNCTION     1.73     1.97     8.43     0  02:10        1.97
  YS02001649           JUNCTION     1.78     2.05     8.44     0  02:04        2.05
  YS02001757           JUNCTION     1.90     2.21     8.47     0  02:09        2.16
  YS02001895           JUNCTION     0.48     1.27     8.01     0  02:37        1.24
  YS02001625           JUNCTION     1.59     1.78     8.38     0  02:03        1.78
  YS02163301           JUNCTION     1.67     1.92     8.44     0  02:10        1.90
  YS02163601           JUNCTION     1.78     2.02     8.42     0  02:10        2.00
  YS02164001           JUNCTION     1.72     1.95     8.41     0  02:10        1.93
  YS02001647           JUNCTION     1.57     1.81     8.42     0  02:10        1.79
  YSB1154              JUNCTION     0.27     0.45     9.51     0  01:40        0.45
  YSB6556              JUNCTION     0.16     0.34     9.51     0  01:40        0.34
  YSB1174              JUNCTION     0.22     0.40     9.51     0  01:41        0.40
  YSB1171              JUNCTION     0.42     0.61     9.51     0  01:40        0.61
  YS02006553           JUNCTION     0.92     1.69     7.98     0  02:37        1.68
  YS02006561           JUNCTION     0.29     0.88     7.54     0  02:37        0.87
  YS02006556           JUNCTION     0.89     1.64     7.95     0  02:36        1.63
  YS02006558           JUNCTION     0.93     1.68     7.94     0  02:35        1.66
  YS02001783           JUNCTION     0.54     1.36     7.50     0  02:20        1.29
  YS02001784           JUNCTION     0.56     1.54     7.61     0  02:20        1.25
  YS02001786           JUNCTION     0.51     1.54     7.57     0  02:20        1.13
  YS02001788           JUNCTION     0.46     1.69     7.66     0  02:20        1.03
  YS02001790           JUNCTION     0.60     1.74     7.39     0  02:20        1.23
  YS02001791           JUNCTION     0.59     1.40     6.87     0  02:20        1.24
  YS02001793           JUNCTION     0.83     1.80     6.63     0  02:34        1.79
  WS02004139           JUNCTION     0.64     0.68     5.59     0  01:58        0.68
  WSC                  OUTFALL      0.33     0.40     1.07     0  01:58        0.40
  3                    OUTFALL      0.12     0.21     6.21     0  01:45        0.21
  4                    OUTFALL      0.02     0.12     7.12     0  03:20        0.12
  5                    OUTFALL      0.00     0.00     5.00     0  00:00        0.00
  JK-storage           STORAGE      3.03     5.80     6.60     0  02:21        5.80
  CC-storage           STORAGE      1.12     1.37     8.37     0  02:54        1.37
  XR-storage           STORAGE      6.91     7.72     5.72     0  02:25        7.72
  
  
  *******************
  Node Inflow Summary
  *******************
  
  -------------------------------------------------------------------------------------------------
                                  Maximum  Maximum                  Lateral       Total        Flow
                                  Lateral    Total  Time of Max      Inflow      Inflow     Balance
                                   Inflow   Inflow   Occurrence      Volume      Volume       Error
  Node                 Type           LPS      LPS  days hr:min    10^6 ltr    10^6 ltr     Percent
  -------------------------------------------------------------------------------------------------
  WS02001211           JUNCTION      7.35   293.24     0  02:12       0.212        8.07       0.186
  WS02001212           JUNCTION      0.00   293.84     0  02:13           0        8.06       0.103
  WS02001213           JUNCTION      0.00   294.40     0  02:12           0        8.05       0.159
  WS02003069           JUNCTION      0.32   960.54     0  01:56     0.00922        17.5       0.102
  WS02003072           JUNCTION      0.00   960.38     0  01:56           0        17.5       0.139
  WS02003073           JUNCTION      1.82   962.17     0  01:57      0.0524        17.6       0.151
  WS02003060           JUNCTION     16.53   960.59     0  01:55       0.476        17.6       0.094
  WS02003066           JUNCTION      0.00   655.04     0  01:52           0        9.08       0.041
  WS02003059           JUNCTION      0.00   295.31     0  03:42           0        8.04       0.310
  WS02003067           JUNCTION      0.00   654.97     0  01:52           0        9.08       0.089
  WS02004401           JUNCTION      0.00   664.20     0  01:48           0        9.27       0.179
  WS02004402           JUNCTION      0.00   661.36     0  01:48           0        9.26       0.174
  WS02004403           JUNCTION      0.00   659.13     0  01:48           0        9.24       0.162
  WS02004404           JUNCTION      0.16   659.38     0  01:48     0.00467        9.23       0.127
  WS02004406           JUNCTION      0.00   659.43     0  01:48           0         9.2       0.312
  WS02004409           JUNCTION      0.00   659.21     0  01:49           0        9.17       0.132
  WS02004410           JUNCTION      0.00   657.46     0  01:49           0        9.16       0.157
  WS02004411           JUNCTION      0.00   655.80     0  01:49           0        9.14       0.167
  WS02004412           JUNCTION      0.00   655.19     0  01:50           0        9.13       0.187
  WS02004413           JUNCTION      0.00   655.16     0  01:51           0        9.11       0.286
  WS02004405           JUNCTION      0.04   659.43     0  01:48      0.0011        9.22       0.190
  WS02006109           JUNCTION      1.23   648.99     0  01:46      0.0354         9.3       0.164
  WS02006110           JUNCTION      0.00   648.95     0  01:46           0        9.28       0.144
  WS02006111           JUNCTION      0.00   683.67     0  01:46           0        9.27       0.021
  WS02006112           JUNCTION     14.90   667.71     0  01:48      0.0621        9.33       0.261
  WS02006113           JUNCTION      0.00   653.51     0  01:46           0        9.27       0.052
  WS02006115           JUNCTION      0.00   668.13     0  01:48           0         9.3       0.151
  WS02006116           JUNCTION      0.00   666.02     0  01:48           0        9.29       0.138
  WS02006230           JUNCTION     10.28   391.29     0  03:21       0.296        7.42       0.151
  WS02006231           JUNCTION      0.00   381.01     0  03:22           0        7.12      -0.014
  WS02006232           JUNCTION      0.00   380.93     0  03:22           0        7.13       0.113
  WS02006234           JUNCTION      0.00   382.64     0  03:21           0        7.13       0.005
  WS02006235           JUNCTION      0.00   382.31     0  03:21           0        7.17       0.074
  WS02006238           JUNCTION      0.00   291.76     0  03:21           0        4.83       0.040
  WS02006240           JUNCTION      0.00   292.55     0  03:21           0         4.8       0.028
  WS02006242           JUNCTION      0.00   292.18     0  03:22           0        4.79       0.055
  WS02006243           JUNCTION      0.00   298.36     0  03:21           0        4.78      -0.039
  WS02006245           JUNCTION      0.00   329.77     0  03:20           0        4.78       0.061
  WS02006247           JUNCTION      0.00   295.89     0  03:11           0        4.78       0.016
  WS02006248           JUNCTION      0.00   293.79     0  03:10           0        4.78      -0.009
  WS02006249           JUNCTION      0.00   419.89     0  03:11           0        5.05       0.028
  WS02006239           JUNCTION      0.00   290.82     0  03:21           0        4.81       0.034
  WS02006251           JUNCTION      0.08   419.70     0  03:11     0.00222        5.05       0.000
  WS02006252           JUNCTION      0.00   400.00     0  03:10           0        4.69       0.002
  WS02006253           JUNCTION      2.03    76.41     0  01:43     0.00803        0.36      -0.107
  WS02006256           JUNCTION      0.00   600.00     0  01:36           0        7.73       0.024
  WS02004138           JUNCTION      0.00   285.00     0  00:40           0        7.87       0.001
  WS02004407           JUNCTION      0.00   659.82     0  01:49           0        9.17       0.055
  WS02006228           JUNCTION      0.00   647.86     0  01:46           0        9.27       0.097
  WS02006229           JUNCTION      0.00   647.94     0  01:44           0        9.28       0.101
  WS02006280           JUNCTION      0.00   366.27     0  01:42           0        1.87       0.003
  WS02006284           JUNCTION      0.10   366.30     0  01:42     0.00275        1.87       0.031
  WS02006287           JUNCTION      0.00   366.22     0  01:42           0        1.87       0.038
  WSF200               JUNCTION      0.00   655.11     0  01:52           0        9.07       0.037
  HS02004901           JUNCTION     18.12    18.12     0  01:36      0.0747      0.0749       2.396
  HS02004881           JUNCTION      7.67    74.61     0  01:43      0.0326       0.352       0.122
  HS02004876           JUNCTION     13.40    67.33     0  01:43      0.0628        0.32       0.165
  HS02004870           JUNCTION     14.05    54.07     0  01:43      0.0618       0.258       0.040
  HS02004862           JUNCTION     12.60    40.55     0  01:44      0.0679       0.196       0.085
  HS02004856           JUNCTION     10.50    27.98     0  01:43      0.0465       0.129       1.120
  HS02004852           JUNCTION      0.00    17.93     0  01:51           0       0.083       0.062
  HS02004848           JUNCTION     27.80    27.80     0  01:53       0.149       0.149       0.027
  HS02004842           JUNCTION      0.00    10.09     0  01:58           0      0.0794      19.577
  HS02004837           JUNCTION     29.79    38.22     0  01:51       0.291       0.357       0.219
  HS02004830           JUNCTION      0.15    38.36     0  01:51     0.00432       0.348       0.356
  HS02004824           JUNCTION     33.49    71.74     0  01:54       0.196       0.542       0.099
  HS02004817           JUNCTION      0.60    72.33     0  01:54      0.0173       0.559       3.075
  HS02004807           JUNCTION     26.14    95.63     0  01:52       0.114       0.656       0.666
  HS02004802           JUNCTION      0.00    95.92     0  01:53           0       0.653       0.607
  HS02004799           JUNCTION     20.64   230.90     0  01:40      0.0921        1.05       0.258
  HS02004792           JUNCTION     88.99   210.32     0  01:39       0.391       0.956       0.041
  HS02004788           JUNCTION     29.98   122.04     0  01:40       0.176       0.566       0.067
  HS02004785           JUNCTION      0.15    92.14     0  01:39     0.00432       0.391       0.123
  HS02004777           JUNCTION      0.03    92.19     0  01:38    0.000864       0.391       1.342
  HS02004770           JUNCTION     74.74    92.54     0  01:38        0.32       0.393       0.788
  HS02004480           JUNCTION      0.00   273.94     0  01:41           0        1.24       0.088
  HS02004479           JUNCTION      0.00    43.16     0  01:41           0       0.201       0.364
  HS02004478           JUNCTION      0.00   366.17     0  01:42           0        1.88       0.019
  YS02001745           JUNCTION    221.95   404.24     0  02:07        2.36        2.37       0.490
  YS02001748           JUNCTION      0.04   598.58     0  02:08      0.0013        2.36       0.951
  YS02001751           JUNCTION      0.01   415.30     0  01:59    0.000317        2.33       1.025
  YS02001754           JUNCTION      0.26   250.67     0  02:08     0.00749        2.31       1.069
  YS02001762           JUNCTION      0.00   275.79     0  02:13           0        1.95       1.087
  YS02001765           JUNCTION      0.00   275.22     0  02:25           0        1.95       1.257
  YS02001767           JUNCTION      0.54   274.95     0  02:25      0.0154        1.97       1.830
  YS02001770           JUNCTION    273.83   301.01     0  02:59        2.64        2.69       1.170
  YS02001774           JUNCTION      0.00   301.46     0  02:59           0       0.749       3.454
  YS02001779           JUNCTION      0.01   301.64     0  02:59    0.000144       0.718       2.181
  YS02001882           JUNCTION      0.00    26.12     0  02:23           0      0.0235       9.026
  YS02001884           JUNCTION      0.00    35.37     0  02:21           0      0.0594      10.528
  YS02001759           JUNCTION    262.15   537.78     0  02:25        2.43        4.31       0.532
  YS02001887           JUNCTION    333.12   336.94     0  02:22         2.8        2.83       0.282
  YS02001890           JUNCTION      0.00   338.09     0  02:22           0        2.78       0.311
  YS02001898           JUNCTION      0.00   337.56     0  02:24           0        2.77       0.096
  YS02001901           JUNCTION      0.00   339.77     0  02:25           0        2.77       0.232
  YS02001904           JUNCTION      0.00   339.38     0  02:25           0        2.77       0.210
  YS02001907           JUNCTION      0.00   605.28     0  02:38           0        6.18       0.383
  YS02001910           JUNCTION      0.00   320.50     0  03:04           0        3.42       0.331
  YS02001915           JUNCTION    195.26   316.53     0  02:52        1.98        3.43       0.158
  YS02001918           JUNCTION      0.00   148.52     0  02:51           0        1.45       0.119
  YS02001619           JUNCTION    191.04   191.04     0  02:29        1.96        1.96       0.608
  YS02001629           JUNCTION      0.00   212.97     0  02:00           0         1.8       1.574
  YS02001641           JUNCTION      0.00   405.38     0  02:03           0        4.04       0.518
  YS02001644           JUNCTION    211.51  1000.88     0  02:57        2.27        8.15       0.319
  YS02001652           JUNCTION      0.00   310.29     0  02:04           0        2.03       1.115
  YS02001655           JUNCTION      0.15   459.75     0  01:57     0.00443        2.06       1.217
  YS02001920           JUNCTION      2.87   140.55     0  02:48      0.0827        1.45       0.191
  YS02001923           JUNCTION      0.04   118.54     0  02:49     0.00109        1.37       0.041
  YS02001926           JUNCTION      0.05   131.45     0  02:50      0.0015        1.37       0.227
  YS02001929           JUNCTION    105.11   105.11     0  02:59        1.37        1.37       0.035
  YS02001658           JUNCTION      0.00   657.80     0  02:04           0        2.09       1.079
  YS02001661           JUNCTION      0.00   637.99     0  02:23           0        2.87      -0.019
  YS02001664           JUNCTION    239.63   370.72     0  02:22        2.09        2.86       0.260
  YS02001622           JUNCTION      0.00   196.85     0  02:01           0        1.95       1.633
  YS02001633           JUNCTION    215.43   405.17     0  02:03        2.34         4.1       0.782
  YS02001649           JUNCTION      0.00   847.96     0  02:20           0        4.93       0.750
  YS02001757           JUNCTION      0.00  1576.71     0  02:19           0        9.51       0.978
  YS02001895           JUNCTION      0.00   339.47     0  02:24           0        2.78       0.175
  YS02001625           JUNCTION      0.00   212.88     0  02:00           0        1.92       2.072
  YS02163301           JUNCTION      0.00   218.45     0  02:03           0        1.79       1.344
  YS02163601           JUNCTION      0.11   405.38     0  02:03     0.00317        4.05       0.743
  YS02164001           JUNCTION      0.00   405.42     0  02:03           0        4.03       0.493
  YS02001647           JUNCTION      0.00   605.14     0  02:20           0        3.93       0.708
  YSB1154              JUNCTION     23.84    23.84     0  01:41       0.112       0.113       1.297
  YSB6556              JUNCTION      0.00    24.02     0  01:41           0       0.113       1.114
  YSB1174              JUNCTION     19.99    19.99     0  01:36       0.081      0.0815       1.595
  YSB1171              JUNCTION      0.00    43.60     0  01:40           0         0.2       3.263
  YS02006553           JUNCTION      0.00   605.19     0  02:38           0        6.17       0.244
  YS02006561           JUNCTION      0.00   889.36     0  02:19           0        8.68       0.008
  YS02006556           JUNCTION      0.00   605.19     0  02:38           0        6.18       0.177
  YS02006558           JUNCTION    286.64   889.37     0  02:19        2.57        8.72       0.057
  YS02001783           JUNCTION      0.00   888.42     0  02:19           0        8.68       0.024
  YS02001784           JUNCTION      1.06   889.27     0  02:19      0.0305        8.71       0.040
  YS02001786           JUNCTION      0.06   889.08     0  02:18     0.00162        8.71       0.035
  YS02001788           JUNCTION      0.07   888.83     0  02:18     0.00204        8.71       0.019
  YS02001790           JUNCTION      0.15   889.88     0  02:18     0.00446        8.71       0.028
  YS02001791           JUNCTION      0.00   934.71     0  02:16           0        8.71       0.010
  YS02001793           JUNCTION      0.00   894.05     0  02:16           0        8.71      -0.000
  WS02004139           JUNCTION      0.32   285.32     0  00:13     0.00924        7.87       0.183
  WSC                  OUTFALL       0.00   962.16     0  01:58           0        17.5       0.000
  3                    OUTFALL       0.00   531.76     0  01:45           0        5.37       0.000
  4                    OUTFALL       0.00   136.04     0  03:20           0       0.269       0.000
  5                    OUTFALL       0.00     0.00     0  00:00           0           0       0.000 ltr
  JK-storage           STORAGE       0.00   877.23     0  02:37           0        8.86      -2.351
  CC-storage           STORAGE       0.00  1576.67     0  02:20           0        8.54       0.767
  XR-storage           STORAGE     560.10   560.10     0  02:30        9.77        10.4      -0.001
  
  
  **********************
  Node Surcharge Summary
  **********************
  
  Surcharging occurs when water rises above the top of the highest conduit.
  ---------------------------------------------------------------------
                                               Max. Height   Min. Depth
                                   Hours       Above Crown    Below Rim
  Node                 Type      Surcharged         Meters       Meters
  ---------------------------------------------------------------------
  WS02004404           JUNCTION        0.53          0.055        2.725
  WS02004406           JUNCTION        0.36          0.028        2.422
  WS02004405           JUNCTION        0.44          0.042        2.758
  WS02006109           JUNCTION        2.02          0.283        1.537
  WS02006110           JUNCTION        0.98          0.116        1.734
  WS02006112           JUNCTION        1.31          0.211        1.469
  WS02006230           JUNCTION        0.49          0.084        1.486
  WS02006231           JUNCTION        0.65          0.125        1.405
  WS02006232           JUNCTION        1.91          0.250        1.230
  WS02006234           JUNCTION        1.14          0.137        1.103
  WS02006235           JUNCTION        1.64          0.166        1.124
  WS02006238           JUNCTION        1.84          0.180        1.250
  WS02006240           JUNCTION        0.82          0.078        1.312
  WS02006242           JUNCTION        1.22          0.104        0.716
  WS02006239           JUNCTION        1.18          0.118        1.172
  WS02006252           JUNCTION        0.42          0.193        0.907
  WS02006228           JUNCTION        2.01          0.329        1.871
  YS02001748           JUNCTION        5.74          1.190        0.000
  YS02001751           JUNCTION        5.94          1.200        0.000
  YS02001754           JUNCTION        6.13          1.082        0.068
  YS02001762           JUNCTION        6.31          1.075        0.075
  YS02001765           JUNCTION        6.30          1.034        0.066
  YS02001767           JUNCTION        6.29          0.963        0.067
  YS02001770           JUNCTION        6.28          0.916        0.004
  YS02001774           JUNCTION        6.31          1.006        0.044
  YS02001779           JUNCTION        6.11          0.680        0.000
  YS02001882           JUNCTION        0.68          0.302        0.528
  YS02001884           JUNCTION        0.74          0.343        0.527
  YS02001759           JUNCTION        6.32          1.081        0.129
  YS02001887           JUNCTION        0.94          0.434        0.516
  YS02001890           JUNCTION        1.03          0.455        0.305
  YS02001898           JUNCTION        0.61          0.234        0.506
  YS02001901           JUNCTION        0.81          0.387        0.483
  YS02001904           JUNCTION        0.77          0.361        0.489
  YS02001907           JUNCTION        1.69          0.691        0.259
  YS02001910           JUNCTION        1.11          0.484        0.616
  YS02001915           JUNCTION        0.67          0.276        0.724
  YS02001619           JUNCTION        5.94          0.610        0.000
  YS02001629           JUNCTION        5.97          0.470        0.000
  YS02001641           JUNCTION        6.29          0.949        0.151
  YS02001644           JUNCTION        6.30          0.920        0.000
  YS02001652           JUNCTION        6.19          1.130        0.000
  YS02001655           JUNCTION        5.97          1.200        0.000
  YS02001658           JUNCTION        5.80          1.300        0.000
  YS02001661           JUNCTION        0.23          1.390        0.000
  YS02001622           JUNCTION        5.98          0.620        0.000
  YS02001633           JUNCTION        6.29          0.953        0.107
  YS02001649           JUNCTION        6.31          1.050        0.000
  YS02001757           JUNCTION        6.35          1.210        0.000
  YS02001895           JUNCTION        0.63          0.265        0.485
  YS02001625           JUNCTION        6.26          0.780        0.000
  YS02163301           JUNCTION        6.28          0.923        0.107
  YS02163601           JUNCTION        6.32          1.020        0.060
  YS02164001           JUNCTION        6.29          0.951        0.149
  YS02001647           JUNCTION        6.23          0.810        0.090
  YS02006553           JUNCTION        1.74          0.693        0.497
  YS02006561           JUNCTION        0.37          0.080        1.070
  YS02006556           JUNCTION        1.42          0.600        0.750
  YS02006558           JUNCTION        1.37          0.577        0.823
  YS02001783           JUNCTION        1.23          0.562        1.038
  YS02001784           JUNCTION        1.18          0.741        0.749
  YS02001786           JUNCTION        1.11          0.742        0.688
  YS02001788           JUNCTION        1.10          0.888        0.592
  YS02001790           JUNCTION        2.48          0.940        0.217
  YS02001791           JUNCTION        2.61          0.597        1.323
  YS02001793           JUNCTION        2.82          0.800        1.800
  
  
  *********************
  Node Flooding Summary
  *********************
  
  Flooding refers to all water that overflows a node, whether it ponds or not.
  --------------------------------------------------------------------------
                                                             Total   Maximum
                                 Maximum   Time of Max       Flood    Ponded
                        Hours       Rate    Occurrence      Volume     Depth
  Node                 Flooded       LPS   days hr:min    10^6 ltr    Meters
  --------------------------------------------------------------------------
  YS02001748              0.01    198.36      0  02:09       0.000     0.000
  YS02001751              0.01    201.46      0  02:00       0.000     0.000
  YS02001779              2.49    301.58      0  02:59       0.697     0.000
  YS02001619              0.01     28.48      0  02:06       0.000     0.000
  YS02001629              0.01     35.53      0  02:05       0.001     0.000
  YS02001644              4.91   1000.82      0  02:57       6.038     0.000
  YS02001652              0.01     20.98      0  02:29       0.000     0.000
  YS02001655              0.01    198.75      0  02:01       0.000     0.000
  YS02001658              0.01    353.62      0  02:03       0.001     0.000
  YS02001661              0.01    165.45      0  02:29       0.001     0.000
  YS02001622              0.01     44.67      0  02:05       0.000     0.000
  YS02001649              0.10     47.52      0  02:34       0.005     0.000
  YS02001757              0.01     15.17      0  02:09       0.000     0.000
  YS02001625              0.86     47.90      0  02:31       0.097     0.000
  JK-storage              2.15    277.13      0  02:37       1.294     0.000
  XR-storage              3.50    275.10      0  02:30       1.582     0.000
  
  
  **********************
  Storage Volume Summary
  **********************
  
  --------------------------------------------------------------------------------------------------
                         Average     Avg  Evap Exfil       Maximum     Max    Time of Max    Maximum
                          Volume    Pcnt  Pcnt  Pcnt        Volume    Pcnt     Occurrence    Outflow
  Storage Unit           1000 m3    Full  Loss  Loss       1000 m3    Full    days hr:min        LPS
  --------------------------------------------------------------------------------------------------
  JK-storage               0.152      52     0     0         0.291     100       0  02:21     600.00
  CC-storage               3.125      20     0     0         3.828      24       0  02:54     400.00
  XR-storage               0.829      89     0     0         0.926     100       0  02:25     285.00
  
  
  ***********************
  Outfall Loading Summary
  ***********************
  
  -----------------------------------------------------------
                         Flow       Avg       Max       Total
                         Freq      Flow      Flow      Volume
  Outfall Node           Pcnt       LPS       LPS    10^6 ltr
  -----------------------------------------------------------
  WSC                  100.00    681.63    962.16      17.533
  3                     93.99    259.10    531.76       5.367
  4                     28.22     47.15    136.04       0.269
  5                      0.00      0.00      0.00       0.000
  -----------------------------------------------------------
  System                55.55    987.89   1559.31      23.169
  
  
  ********************
  Link Flow Summary
  ********************
  
  -----------------------------------------------------------------------------
                                 Maximum  Time of Max   Maximum    Max/    Max/
                                  |Flow|   Occurrence   |Veloc|    Full    Full
  Link                 Type          LPS  days hr:min     m/sec    Flow   Depth
  -----------------------------------------------------------------------------
  WS02003066WSF200     CONDUIT    655.11     0  01:52      2.80    0.11    0.26
  WS02006287WS02006284 CONDUIT    366.21     0  01:42      1.96    0.17    0.29
  WS02006284WS02006280 CONDUIT    366.27     0  01:42      2.20    0.15    0.26
  WS02006280WS02006229 CONDUIT    366.28     0  01:42      3.55    0.08    0.19
  WS02006229WS02006228 CONDUIT    647.86     0  01:46      1.29    2.15    1.00
  WS02006256WS02006235 CONDUIT    158.32     0  01:30      2.30    1.68    1.00
  WS02006253WS02006251 CONDUIT     81.73     0  01:45      0.58    0.25    0.93
  WS02006252WS02006251 CONDUIT    400.28     0  03:13      3.19    1.47    1.00
  WS02006251WS02006249 CONDUIT    419.89     0  03:11      1.16    1.21    0.90
  WS02006249WS02006248 CONDUIT    293.79     0  03:10      1.11    1.61    0.86
  WS02006248WS02006247 CONDUIT    295.89     0  03:11      1.07    0.64    0.92
  WS02006247WS02006245 CONDUIT    329.77     0  03:20      1.03    2.61    0.94
  WS02006245WS02006243 CONDUIT    298.36     0  03:21      1.06    0.88    0.96
  WS02006243WS02006242 CONDUIT    292.18     0  03:22      0.83    0.62    1.00
  WS02006242WS02006240 CONDUIT    292.55     0  03:21      0.76    1.16    1.00
  WS02006240WS02006239 CONDUIT    290.82     0  03:21      0.76    0.92    1.00
  WS02006239WS02006238 CONDUIT    291.76     0  03:21      0.76    0.93    1.00
  WS02006238WS02006235 CONDUIT    292.12     0  03:21      0.76    0.65    1.00
  WS02006235WS02006234 CONDUIT    382.64     0  03:21      1.00    4.04    1.00
  WS02006234WS02006232 CONDUIT    380.93     0  03:22      0.99    0.77    1.00
  WS02006232WS02006231 CONDUIT    381.01     0  03:22      1.02    0.80    1.00
  WS02006231WS02006230 CONDUIT    381.01     0  03:21      1.29    5.78    1.00
  WS02006230WS02006229 CONDUIT    392.12     0  03:20      1.02    8.73    1.00
  WS02006228WS02006109 CONDUIT    647.76     0  01:46      1.29    2.83    1.00
  WS02006116WS02004401 CONDUIT    664.20     0  01:48      0.86    0.92    0.96
  WS02006115WS02006116 CONDUIT    666.02     0  01:48      0.94    0.85    0.89
  WS02006113WS02006111 CONDUIT    683.67     0  01:46      2.61    0.82    0.53
  WS02006112WS02006115 CONDUIT    668.13     0  01:48      0.89    0.39    0.94
  WS02006111WS02006112 CONDUIT    654.59     0  01:48      1.73    0.31    0.71
  WS02006110WS02006113 CONDUIT    653.51     0  01:46      1.49    0.59    0.82
  WS02006109WS02006110 CONDUIT    648.95     0  01:46      1.29    1.25    1.00
  WS02004411WS02004412 CONDUIT    655.19     0  01:50      1.03    0.93    0.76
  WS02004401WS02004402 CONDUIT    661.36     0  01:48      0.85    0.79    0.98
  WS02004413WS02003067 CONDUIT    654.97     0  01:52      1.24    0.28    0.64
  WS02004412WS02004413 CONDUIT    655.16     0  01:51      0.93    0.44    0.84
  WS02004410WS02004411 CONDUIT    655.80     0  01:49      1.03    0.90    0.76
  WS02004409WS02004410 CONDUIT    657.46     0  01:49      1.04    0.85    0.75
  WS02004407WS02004409 CONDUIT    659.21     0  01:49      1.57    0.23    0.54
  WS02004406WS02004407 CONDUIT    659.82     0  01:49      1.19    0.29    0.66
  WS02004405WS02004406 CONDUIT    659.43     0  01:48      0.84    1.30    1.00
  WS02004404WS02004405 CONDUIT    659.39     0  01:48      0.97    6.46    1.00
  WS02004403WS02004404 CONDUIT    659.22     0  01:48      0.84    0.48    1.00
  WS02004402WS02004403 CONDUIT    659.13     0  01:48      0.87    0.95    0.99
  WS02004139WS02001211 CONDUIT    285.89     0  02:12      0.57    0.36    0.55
  WS02004138WS02004139 CONDUIT    285.00     0  00:13      2.11    0.06    0.40
  WS02003067WS02003066 CONDUIT    655.04     0  01:52      1.35    0.21    0.45
  WS02001213WS02003059 CONDUIT    295.31     0  03:42      0.59    0.49    0.75
  WS02001212WS02001213 CONDUIT    294.40     0  02:12      1.19    0.45    0.44
  WS02001211WS02001212 CONDUIT    293.84     0  02:13      0.67    0.22    0.60
  WS02003072WS02003073 CONDUIT    960.35     0  01:57      1.74    2.07    0.49
  WS02003069WS02003072 CONDUIT    960.38     0  01:56      1.63    0.46    0.52
  WS02003060WS02003069 CONDUIT    960.22     0  01:56      1.88    0.38    0.46
  WS02003059WS02003060 CONDUIT    296.67     0  03:42      0.82    0.19    0.66
  HS02004901HS02004770 CONDUIT     17.82     0  01:38      0.06    0.07    0.40
  HS02004876HS02004881 CONDUIT     67.33     0  01:43      0.89    0.72    0.11
  HS02004870HS02004876 CONDUIT     54.05     0  01:43      0.61    0.04    0.13
  HS02004842HS02004848 CONDUIT     10.09     0  01:58      0.05    0.01    0.30
  HS02004837HS02004842 CONDUIT     10.33     0  02:00      0.42    0.01    0.31
  HS02004830HS02004837 CONDUIT     38.21     0  01:51      0.54    0.04    0.10
  HS02004824HS02004830 CONDUIT     38.37     0  01:52      0.57    0.05    0.10
  HS02004817HS02004824 CONDUIT     71.73     0  01:54      0.22    0.03    0.46
  HS02004770HS02004777 CONDUIT     92.16     0  01:38      0.32    0.17    0.41
  HS02004799HS02004480 CONDUIT    230.85     0  01:40      0.78    0.29    0.42
  HS02004792HS02004799 CONDUIT    210.29     0  01:40      0.89    0.13    0.34
  HS02004788HS02004792 CONDUIT    122.00     0  01:40      1.02    0.08    0.17
  HS02004785HS02004788 CONDUIT     92.09     0  01:40      0.67    0.69    0.20
  HS02004777HS02004785 CONDUIT     91.99     0  01:39      0.39    0.11    0.34
  HS02004480HS02004478 CONDUIT    273.63     0  01:41      1.21    1.15    0.32
  HS02004479HS02004480 CONDUIT     43.48     0  01:42      0.30    0.04    0.41
  HS02004862HS02004870 CONDUIT     40.54     0  01:45      0.62    0.04    0.09
  HS02004848HS02004852 CONDUIT     17.93     0  01:51      0.42    0.02    0.06
  HS02004856HS02004862 CONDUIT     27.96     0  01:44      0.46    0.03    0.09
  HS02004852HS02004856 CONDUIT     17.92     0  01:52      0.22    0.02    0.12
  HS02004802HS02004478 CONDUIT     96.20     0  01:53      0.42    0.08    0.34
  HS02004478WS02006287 CONDUIT    366.22     0  01:42      1.67    0.10    0.24
  HS02004817HS02004807 CONDUIT     72.77     0  01:55      0.17    0.04    0.61
  HS02004807HS02004802 CONDUIT     95.92     0  01:53      0.36    0.18    0.39
  YS02001759YS02001757 CONDUIT    538.06     0  02:13      0.69    0.38    1.00
  YS02001762YS02001759 CONDUIT    276.87     0  02:11      0.35    0.32    1.00
  YS02001765YS02001762 CONDUIT    275.79     0  02:13      0.35    0.26    1.00
  YS02001770YS02001767 CONDUIT    274.42     0  02:25      0.42    1.09    1.00
  YS02001774YS02001770 CONDUIT    301.46     0  02:59      0.38    0.19    1.00
  YS02001779YS02001774 CONDUIT    301.64     0  02:59      0.38    0.15    1.00
  YS02001649YS02001757 CONDUIT    848.07     0  02:20      1.08    0.51    1.00
  YS02001767YS02001765 CONDUIT    275.22     0  02:25      0.38    0.35    1.00
  YS02006561YS02001783 CONDUIT    888.42     0  02:19      2.16    0.46    1.00
  YS02001783YS02001784 CONDUIT    888.21     0  02:19      1.77    1.22    1.00
  YS02001784YS02001785 CONDUIT    889.02     0  02:18      1.88    2.07    1.00
  YS02001788YS02001790 CONDUIT    889.72     0  02:18      2.44    0.66    1.00
  YS02001790YS02001791 CONDUIT    934.71     0  02:16      3.06    1.02    1.00
  YS02001791YS02001793 CONDUIT    894.05     0  02:16      6.04    0.38    1.00
  YS02001910YS02001907 CONDUIT    320.65     0  03:04      0.49    0.18    1.00
  YS02001786YS02001788 CONDUIT    888.76     0  02:18      2.32    1.71    1.00
  YS02001915YS02001910 CONDUIT    320.50     0  03:04      0.58    0.16    1.00
  YS02001918YS02001915 CONDUIT    145.46     0  03:05      0.44    0.08    0.96
  YS02001923YS02001920 CONDUIT    137.68     0  02:48      0.68    0.06    0.85
  YS02001926YS02001923 CONDUIT    118.50     0  02:49      0.78    0.17    0.53
  YS02001929YS02001926 CONDUIT    131.40     0  02:50      0.83    0.06    0.42
  YS02001920YS02001918 CONDUIT    148.52     0  02:51      0.67    0.14    0.95
  YS02001629YS02163301 CONDUIT    218.45     0  02:03      0.28    0.27    1.00
  YS02001619YS02001622 CONDUIT    196.85     0  02:01      0.73    0.29    1.00
  YS02001622YS02001625 CONDUIT    212.88     0  02:00      0.36    0.11    1.00
  YS02001625YS02001629 CONDUIT    212.97     0  02:00      0.30    0.10    1.00
  YS02163301YS02001633 CONDUIT    218.62     0  02:03      0.28    0.21    1.00
  YS02163601YS02164001 CONDUIT    405.42     0  02:03      0.52    0.36    1.00
  YS02164001YS02001641 CONDUIT    405.38     0  02:03      0.52    0.55    1.00
  YS02001641YS02001644 CONDUIT    405.29     0  02:03      0.52    1.31    1.00
  YS02001647YS02001649 CONDUIT    605.19     0  02:20      0.77    0.32    1.00
  YS02006553YS02006556 CONDUIT    605.19     0  02:38      0.77    0.52    1.00
  YS02006556YS02006558 CONDUIT    605.02     0  02:40      0.77    0.48    1.00
  YSB6556YSB1171       CONDUIT     24.43     0  01:43      0.09    0.03    0.68
  YS02001907YS02006553 CONDUIT    605.19     0  02:38      0.67    0.71    1.00
  YS02006558YS02006561 CONDUIT    889.36     0  02:19      3.47    1.97    1.00
  YS02001633YS02163601 CONDUIT    405.27     0  02:03      0.52    0.43    1.00
  YS02001644YS02001647 CONDUIT    605.14     0  02:20      0.77    0.36    1.00
  YS02001745YS02001748 CONDUIT    598.53     0  02:08      1.65    0.23    0.94
  YS02001748YS02001751 CONDUIT    415.29     0  01:59      1.23    0.21    1.00
  YS02001751YS02001754 CONDUIT    250.41     0  02:08      1.05    0.12    1.00
  YS02001754YS02001757 CONDUIT    250.84     0  02:08      0.33    0.10    1.00
  YS02001882YS02001884 CONDUIT     26.12     0  02:23      0.15    0.03    1.00
  YS02001884YS02001887 CONDUIT     35.37     0  02:21      0.11    0.05    1.00
  YS02001890YS02001895 CONDUIT    339.47     0  02:24      0.47    0.16    1.00
  YS02001895YS02001898 CONDUIT    337.56     0  02:24      0.59    0.59    1.00
  YS02001898YS02001901 CONDUIT    339.77     0  02:25      0.51    0.22    1.00
  YS02001901YS02001904 CONDUIT    339.38     0  02:25      0.46    0.53    1.00
  YS02001904YS02001907 CONDUIT    337.53     0  02:25      0.43    0.12    1.00
  YS02001887YS02001890 CONDUIT    338.09     0  02:22      0.43    0.58    1.00
  YS02001652YS02001649 CONDUIT    310.73     0  02:04      0.61    0.15    1.00
  YS02001655YS02001652 CONDUIT    310.29     0  02:04      1.11    0.15    1.00
  YS02001658YS02001655 CONDUIT    459.60     0  01:57      1.42    0.19    1.00
  YS02001661YS02001658 CONDUIT    657.80     0  02:04      1.73    0.26    1.00
  YS02001664YS02001661 CONDUIT    637.99     0  02:23      1.63    0.20    0.72
  YSB1154YSB6556       CONDUIT     24.02     0  01:41      0.16    0.04    0.57
  YSB1174YSB1171       CONDUIT     20.02     0  01:36      0.07    0.03    0.68
  YSB1171HS02004479    CONDUIT     43.16     0  01:41      0.54    0.03    0.54
  HS02004881HS02006253 CONDUIT     74.61     0  01:43      2.04    0.01    0.24
  YS02001793JiankangQianchi CONDUIT    877.23     0  02:37     16.39    0.07    1.00
  YS02001757CaochengTiaoxuchi CONDUIT   1576.67     0  02:20      2.50    0.69    1.00
  WSF200WS02003060     CONDUIT    655.83     0  01:51      1.78    0.15    0.36
  1                    CONDUIT    962.16     0  01:58      3.29    0.34    0.40
  2                    CONDUIT    136.04     0  03:20      5.28    0.33    0.39
  3                    CONDUIT    531.76     0  01:45      9.88    0.85    0.71
  4                    CONDUIT      0.00     0  00:00      0.00    0.00    0.00
  CC-Pump-1            PUMP       200.00     0  01:35              1.00
  CC-Pump-2            PUMP       200.00     0  03:10              1.00
  JK-Pump-1            PUMP       300.00     0  00:10              1.00
  JK-Pump-2            PUMP       300.00     0  01:36              1.00
  XR-Pump-1            PUMP        95.00     0  00:10              1.00
  XR-Pump-2            PUMP        95.00     0  00:10              1.00
  XR-Pump-3            PUMP        95.00     0  00:50              1.00
  XR-Pump-4            PUMP        95.00     0  00:10              1.00
  
  
  ***************************
  Flow Classification Summary
  ***************************
  
  -------------------------------------------------------------------------------------
                      Adjusted    ---------- Fraction of Time in Flow Class ---------- 
                       /Actual         Up    Down  Sub   Sup   Up    Down  Norm  Inlet 
  Conduit               Length    Dry  Dry   Dry   Crit  Crit  Crit  Crit  Ltd   Ctrl  
  -------------------------------------------------------------------------------------
  WS02003066WSF200        1.00   0.04  0.00  0.00  0.00  0.95  0.00  0.00  0.61  0.00
  WS02006287WS02006284    1.00   0.03  0.01  0.00  0.56  0.40  0.00  0.00  0.72  0.00
  WS02006284WS02006280    1.00   0.04  0.00  0.00  0.00  0.00  0.00  0.96  0.00  0.00
  WS02006280WS02006229    1.00   0.04  0.00  0.00  0.00  0.00  0.00  0.96  0.00  0.00
  WS02006229WS02006228    1.00   0.00  0.00  0.00  1.00  0.00  0.00  0.00  0.00  0.00
  WS02006256WS02006235    1.00   0.00  0.00  0.00  1.00  0.00  0.00  0.00  0.00  0.00
  WS02006253WS02006251    1.00   0.02  0.01  0.00  0.96  0.00  0.00  0.00  0.00  0.00
  WS02006252WS02006251    1.00   0.05  0.00  0.00  0.00  0.00  0.95  0.00  0.00  0.00
  WS02006251WS02006249    1.00   0.00  0.00  0.00  1.00  0.00  0.00  0.00  0.18  0.00
  WS02006249WS02006248    1.00   0.00  0.01  0.00  0.95  0.00  0.04  0.00  0.00  0.00
  WS02006248WS02006247    1.00   0.01  0.00  0.00  0.98  0.00  0.00  0.01  0.07  0.00
  WS02006247WS02006245    1.00   0.01  0.00  0.00  0.99  0.00  0.00  0.00  0.01  0.00
  WS02006245WS02006243    1.00   0.01  0.00  0.00  0.97  0.00  0.00  0.02  0.01  0.00
  WS02006243WS02006242    1.00   0.00  0.00  0.00  0.99  0.00  0.00  0.00  0.15  0.00
  WS02006242WS02006240    1.00   0.00  0.00  0.00  1.00  0.00  0.00  0.00  0.00  0.00
  WS02006240WS02006239    1.00   0.00  0.00  0.00  0.98  0.00  0.00  0.02  0.01  0.00
  WS02006239WS02006238    1.00   0.00  0.00  0.00  1.00  0.00  0.00  0.00  0.00  0.00
  WS02006238WS02006235    1.00   0.00  0.00  0.00  1.00  0.00  0.00  0.00  0.00  0.00
  WS02006235WS02006234    1.00   0.00  0.00  0.00  0.98  0.00  0.02  0.00  0.00  0.00
  WS02006234WS02006232    1.00   0.00  0.00  0.00  1.00  0.00  0.00  0.00  0.00  0.00
  WS02006232WS02006231    1.00   0.00  0.00  0.00  1.00  0.00  0.00  0.00  0.00  0.00
  WS02006231WS02006230    1.00   0.00  0.00  0.00  0.52  0.00  0.48  0.00  0.00  0.00
  WS02006230WS02006229    1.00   0.00  0.00  0.00  0.99  0.00  0.00  0.01  0.01  0.00
  WS02006228WS02006109    1.00   0.00  0.00  0.00  1.00  0.00  0.00  0.00  0.00  0.00
  WS02006116WS02004401    1.00   0.02  0.00  0.00  0.98  0.00  0.00  0.00  0.00  0.00
  WS02006115WS02006116    1.00   0.02  0.00  0.00  0.98  0.00  0.00  0.00  0.00  0.00
  WS02006113WS02006111    1.00   0.01  0.00  0.00  0.00  0.99  0.00  0.00  0.12  0.00
  WS02006112WS02006115    1.00   0.01  0.01  0.00  0.98  0.00  0.00  0.00  0.00  0.00
  WS02006111WS02006112    1.00   0.01  0.00  0.00  0.98  0.00  0.00  0.00  0.92  0.00
  WS02006110WS02006113    1.00   0.00  0.01  0.00  0.99  0.00  0.00  0.00  0.00  0.00
  WS02006109WS02006110    1.00   0.00  0.00  0.00  0.99  0.00  0.01  0.00  0.00  0.00
  WS02004411WS02004412    1.00   0.03  0.00  0.00  0.97  0.00  0.00  0.00  0.00  0.00
  WS02004401WS02004402    1.00   0.02  0.00  0.00  0.98  0.00  0.00  0.00  0.00  0.00
  WS02004413WS02003067    1.00   0.03  0.01  0.00  0.00  0.00  0.96  0.00  0.00  0.00
  WS02004412WS02004413    1.00   0.03  0.00  0.00  0.97  0.00  0.00  0.00  0.02  0.00
  WS02004410WS02004411    1.00   0.03  0.00  0.00  0.97  0.00  0.00  0.00  0.02  0.00
  WS02004409WS02004410    1.00   0.03  0.00  0.00  0.97  0.00  0.00  0.00  0.03  0.00
  WS02004407WS02004409    1.00   0.03  0.00  0.00  0.97  0.00  0.00  0.00  0.92  0.00
  WS02004406WS02004407    1.00   0.00  0.03  0.00  0.97  0.00  0.00  0.00  0.00  0.00
  WS02004405WS02004406    1.00   0.00  0.00  0.00  1.00  0.00  0.00  0.00  0.01  0.00
  WS02004404WS02004405    1.00   0.00  0.00  0.00  1.00  0.00  0.00  0.00  0.00  0.00
  WS02004403WS02004404    1.00   0.00  0.02  0.00  0.98  0.00  0.00  0.00  0.00  0.00
  WS02004402WS02004403    1.00   0.02  0.00  0.00  0.98  0.00  0.00  0.00  0.00  0.00
  WS02004139WS02001211    1.00   0.00  0.00  0.00  1.00  0.00  0.00  0.00  0.00  0.00
  WS02004138WS02004139    1.00   0.00  0.00  0.00  0.99  0.00  0.00  0.00  0.99  0.00
  WS02003067WS02003066    1.00   0.04  0.00  0.00  0.96  0.00  0.00  0.00  0.00  0.00
  WS02001213WS02003059    1.00   0.00  0.00  0.00  1.00  0.00  0.00  0.00  0.00  0.00
  WS02001212WS02001213    1.00   0.00  0.00  0.00  0.92  0.00  0.07  0.00  0.00  0.00
  WS02001211WS02001212    1.00   0.00  0.00  0.00  1.00  0.00  0.00  0.00  0.00  0.00
  WS02003072WS02003073    1.00   0.00  0.00  0.00  0.00  0.00  0.00  1.00  0.00  0.00
  WS02003069WS02003072    1.00   0.00  0.00  0.00  1.00  0.00  0.00  0.00  0.19  0.00
  WS02003060WS02003069    1.00   0.00  0.00  0.00  0.99  0.01  0.00  0.00  0.03  0.00
  WS02003059WS02003060    1.00   0.00  0.00  0.00  1.00  0.00  0.00  0.00  0.01  0.00
  HS02004901HS02004770    1.00   0.04  0.00  0.00  0.96  0.00  0.00  0.00  0.00  0.00
  HS02004876HS02004881    1.00   0.01  0.00  0.00  0.90  0.09  0.00  0.00  0.00  0.00
  HS02004870HS02004876    1.00   0.00  0.00  0.00  0.99  0.01  0.00  0.00  0.95  0.00
  HS02004842HS02004848    1.00   0.00  0.04  0.00  0.96  0.00  0.00  0.00  0.59  0.00
  HS02004837HS02004842    1.00   0.00  0.00  0.00  1.00  0.00  0.00  0.00  0.11  0.00
  HS02004830HS02004837    1.00   0.00  0.00  0.00  1.00  0.00  0.00  0.00  0.99  0.00
  HS02004824HS02004830    1.00   0.00  0.00  0.00  1.00  0.00  0.00  0.00  0.00  0.00
  HS02004817HS02004824    1.00   0.00  0.00  0.00  1.00  0.00  0.00  0.00  1.00  0.00
  HS02004770HS02004777    1.00   0.00  0.04  0.00  0.96  0.00  0.00  0.00  0.02  0.00
  HS02004799HS02004480    1.00   0.00  0.02  0.00  0.96  0.00  0.02  0.00  0.00  0.00
  HS02004792HS02004799    1.00   0.00  0.00  0.00  1.00  0.00  0.00  0.00  0.98  0.00
  HS02004788HS02004792    1.00   0.00  0.00  0.00  1.00  0.00  0.00  0.00  0.98  0.00
  HS02004785HS02004788    1.00   0.00  0.00  0.00  1.00  0.00  0.00  0.00  0.00  0.00
  HS02004777HS02004785    1.00   0.00  0.00  0.00  1.00  0.00  0.00  0.00  0.12  0.00
  HS02004480HS02004478    1.00   0.04  0.00  0.00  0.61  0.00  0.00  0.36  0.00  0.00
  HS02004479HS02004480    1.00   0.02  0.00  0.00  0.98  0.00  0.00  0.00  0.11  0.00
  HS02004862HS02004870    1.00   0.00  0.00  0.00  1.00  0.00  0.00  0.00  0.03  0.00
  HS02004848HS02004852    1.00   0.04  0.00  0.00  0.96  0.00  0.00  0.00  0.79  0.00
  HS02004856HS02004862    1.00   0.00  0.04  0.00  0.96  0.00  0.00  0.00  0.84  0.00
  HS02004852HS02004856    1.00   0.04  0.00  0.00  0.96  0.00  0.00  0.00  0.86  0.00
  HS02004802HS02004478    1.00   0.04  0.00  0.00  0.96  0.00  0.00  0.00  0.02  0.00
  HS02004478WS02006287    1.00   0.04  0.00  0.00  0.72  0.24  0.00  0.00  0.69  0.00
  HS02004817HS02004807    1.00   0.00  0.04  0.00  0.96  0.00  0.00  0.00  0.01  0.00
  HS02004807HS02004802    1.00   0.04  0.00  0.00  0.96  0.00  0.00  0.00  0.00  0.00
  YS02001759YS02001757    1.00   0.00  0.00  0.00  1.00  0.00  0.00  0.00  0.15  0.00
  YS02001762YS02001759    1.00   0.00  0.00  0.00  1.00  0.00  0.00  0.00  0.03  0.00
  YS02001765YS02001762    1.00   0.00  0.00  0.00  1.00  0.00  0.00  0.00  0.13  0.00
  YS02001770YS02001767    1.00   0.00  0.00  0.00  1.00  0.00  0.00  0.00  0.00  0.00
  YS02001774YS02001770    1.00   0.00  0.04  0.00  0.96  0.00  0.00  0.00  0.03  0.00
  YS02001779YS02001774    1.00   0.00  0.00  0.00  1.00  0.00  0.00  0.00  0.17  0.00
  YS02001649YS02001757    1.00   0.00  0.00  0.00  1.00  0.00  0.00  0.00  0.15  0.00
  YS02001767YS02001765    1.00   0.00  0.00  0.00  1.00  0.00  0.00  0.00  0.00  0.00
  YS02006561YS02001783    1.00   0.04  0.00  0.00  0.47  0.49  0.00  0.00  0.59  0.00
  YS02001783YS02001784    1.00   0.00  0.04  0.00  0.96  0.00  0.00  0.00  0.00  0.00
  YS02001784YS02001785    1.00   0.00  0.00  0.00  1.00  0.00  0.00  0.00  0.16  0.00
  YS02001788YS02001790    1.00   0.00  0.00  0.00  0.47  0.53  0.00  0.00  0.53  0.00
  YS02001790YS02001791    1.00   0.00  0.00  0.00  0.44  0.56  0.00  0.00  0.40  0.00
  YS02001791YS02001793    1.00   0.00  0.00  0.00  0.46  0.54  0.00  0.00  0.02  0.00
  YS02001910YS02001907    1.00   0.00  0.00  0.00  0.98  0.00  0.00  0.02  0.12  0.00
  YS02001786YS02001788    1.00   0.00  0.00  0.00  0.45  0.55  0.00  0.00  0.00  0.00
  YS02001915YS02001910    1.00   0.00  0.00  0.00  0.98  0.02  0.00  0.00  0.14  0.00
  YS02001918YS02001915    1.00   0.00  0.00  0.00  0.98  0.01  0.00  0.00  0.58  0.00
  YS02001923YS02001920    1.00   0.00  0.00  0.00  1.00  0.00  0.00  0.00  0.83  0.00
  YS02001926YS02001923    1.00   0.00  0.03  0.00  0.14  0.00  0.84  0.00  0.00  0.00
  YS02001929YS02001926    1.00   0.00  0.04  0.00  0.96  0.00  0.00  0.00  0.82  0.00
  YS02001920YS02001918    1.00   0.00  0.00  0.00  1.00  0.00  0.00  0.00  0.00  0.00
  YS02001629YS02163301    1.00   0.04  0.00  0.00  0.96  0.00  0.00  0.00  0.00  0.00
  YS02001619YS02001622    1.00   0.04  0.00  0.00  0.96  0.00  0.00  0.00  0.00  0.00
  YS02001622YS02001625    1.00   0.04  0.00  0.00  0.96  0.00  0.00  0.00  0.04  0.00
  YS02001625YS02001629    1.00   0.04  0.01  0.00  0.94  0.00  0.01  0.00  0.00  0.00
  YS02163301YS02001633    1.00   0.00  0.04  0.00  0.96  0.00  0.00  0.00  0.00  0.00
  YS02163601YS02164001    1.00   0.00  0.03  0.00  0.97  0.00  0.00  0.00  0.00  0.00
  YS02164001YS02001641    1.00   0.00  0.03  0.00  0.97  0.00  0.00  0.00  0.05  0.00
  YS02001641YS02001644    1.00   0.00  0.00  0.00  1.00  0.00  0.00  0.00  0.00  0.00
  YS02001647YS02001649    1.00   0.00  0.04  0.00  0.96  0.00  0.00  0.00  0.01  0.00
  YS02006553YS02006556    1.00   0.00  0.00  0.00  1.00  0.00  0.00  0.00  0.03  0.00
  YS02006556YS02006558    1.00   0.00  0.00  0.00  1.00  0.00  0.00  0.00  0.00  0.00
  YSB6556YSB1171          1.00   0.02  0.01  0.00  0.96  0.00  0.00  0.00  0.00  0.00
  YS02001907YS02006553    1.00   0.00  0.01  0.00  0.99  0.00  0.00  0.00  0.00  0.00
  YS02006558YS02006561    1.00   0.04  0.00  0.00  0.17  0.79  0.00  0.00  0.51  0.00
  YS02001633YS02163601    1.00   0.00  0.00  0.00  1.00  0.00  0.00  0.00  0.15  0.00
  YS02001644YS02001647    1.00   0.00  0.04  0.00  0.96  0.00  0.00  0.00  0.00  0.00
  YS02001745YS02001748    1.00   0.00  0.00  0.00  0.92  0.00  0.00  0.07  0.03  0.00
  YS02001748YS02001751    1.00   0.00  0.00  0.00  0.98  0.02  0.00  0.00  0.14  0.00
  YS02001751YS02001754    1.00   0.00  0.00  0.00  0.95  0.00  0.00  0.05  0.01  0.00
  YS02001754YS02001757    1.00   0.00  0.00  0.00  1.00  0.00  0.00  0.00  0.17  0.00
  YS02001882YS02001884    1.00   0.04  0.00  0.00  0.96  0.00  0.00  0.00  0.00  0.00
  YS02001884YS02001887    1.00   0.03  0.01  0.00  0.97  0.00  0.00  0.00  0.00  0.00
  YS02001890YS02001895    1.00   0.00  0.04  0.00  0.96  0.00  0.00  0.00  0.00  0.00
  YS02001895YS02001898    1.00   0.04  0.00  0.00  0.95  0.00  0.00  0.00  0.00  0.00
  YS02001898YS02001901    1.00   0.04  0.00  0.00  0.96  0.00  0.00  0.00  0.01  0.00
  YS02001901YS02001904    1.00   0.04  0.00  0.00  0.96  0.00  0.00  0.00  0.00  0.00
  YS02001904YS02001907    1.00   0.00  0.04  0.00  0.96  0.00  0.00  0.00  0.00  0.00
  YS02001887YS02001890    1.00   0.00  0.00  0.00  0.98  0.00  0.02  0.00  0.00  0.00
  YS02001652YS02001649    1.00   0.00  0.00  0.00  1.00  0.00  0.00  0.00  0.15  0.00
  YS02001655YS02001652    1.00   0.00  0.00  0.00  0.95  0.00  0.00  0.05  0.01  0.00
  YS02001658YS02001655    1.00   0.00  0.04  0.00  0.94  0.02  0.00  0.00  0.02  0.00
  YS02001661YS02001658    1.00   0.04  0.00  0.00  0.92  0.04  0.00  0.00  0.03  0.00
  YS02001664YS02001661    1.00   0.04  0.00  0.00  0.88  0.08  0.00  0.00  0.15  0.00
  YSB1154YSB6556          1.00   0.04  0.00  0.00  0.96  0.00  0.00  0.00  0.01  0.00
  YSB1174YSB1171          1.00   0.02  0.01  0.00  0.97  0.00  0.00  0.00  0.00  0.00
  YSB1171HS02004479       1.00   0.02  0.00  0.00  0.97  0.00  0.00  0.00  0.10  0.00
  HS02004881HS02006253    1.00   0.02  0.00  0.00  0.92  0.00  0.00  0.05  0.77  0.00
  YS02001793JiankangQianchi    1.00   0.00  0.00  0.00  0.62  0.37  0.00  0.00  0.17  0.00
  YS02001757CaochengTiaoxuchi    1.00   0.00  0.05  0.00  0.90  0.04  0.00  0.00  0.00  0.00
  WSF200WS02003060        1.00   0.00  0.05  0.00  0.93  0.03  0.00  0.00  0.16  0.00
  1                       1.00   0.00  0.00  0.00  0.00  1.00  0.00  0.00  0.32  0.00
  2                       1.00   0.71  0.00  0.00  0.00  0.28  0.00  0.00  0.04  0.00
  3                       1.00   0.06  0.00  0.00  0.00  0.94  0.00  0.00  0.16  0.00
  4                       1.00   1.00  0.00  0.00  0.00  0.00  0.00  0.00  0.00  0.00
  
  
  *************************
  Conduit Surcharge Summary
  *************************
  
  ----------------------------------------------------------------------------
                                                           Hours        Hours 
                         --------- Hours Full --------   Above Full   Capacity
  Conduit                Both Ends  Upstream  Dnstream   Normal Flow   Limited
  ----------------------------------------------------------------------------
  WS02006229WS02006228        2.01      2.03      2.01      6.23         2.01
  WS02006256WS02006235        6.53      6.53      7.98      4.35         0.01
  WS02006252WS02006251        0.26      0.26      0.42      0.38         0.01
  WS02006251WS02006249        0.01      0.01      0.01      0.28         0.01
  WS02006249WS02006248        0.01      0.01      0.01      6.11         0.01
  WS02006247WS02006245        0.01      0.01      0.01      6.17         0.01
  WS02006243WS02006242        0.01      0.01      1.22      0.01         0.01
  WS02006242WS02006240        0.82      0.82      1.50      0.44         0.01
  WS02006240WS02006239        0.94      0.94      1.18      0.01         0.01
  WS02006239WS02006238        1.61      1.61      1.83      0.01         0.01
  WS02006238WS02006235        1.77      1.77      1.87      0.01         0.01
  WS02006235WS02006234        1.14      1.14      1.63      6.54         0.01
  WS02006234WS02006232        1.42      1.42      1.91      0.01         0.01
  WS02006232WS02006231        0.65      0.65      1.91      0.01         0.01
  WS02006231WS02006230        0.49      0.49      0.70      6.61         0.01
  WS02006230WS02006229        2.32      5.20      2.32      6.75         2.32
  WS02006228WS02006109        2.02      2.11      2.02      6.33         2.02
  WS02006112WS02006115        0.01      0.01      1.31      0.01         0.01
  WS02006111WS02006112        0.01      0.01      6.25      0.01         0.01
  WS02006110WS02006113        0.01      0.01      2.06      0.01         0.01
  WS02006109WS02006110        0.98      0.98      2.12      0.98         0.01
  WS02004406WS02004407        0.01      0.01      0.36      0.01         0.01
  WS02004405WS02004406        0.36      0.44      0.36      1.12         0.36
  WS02004404WS02004405        0.44      0.53      0.44      6.51         0.44
  WS02004403WS02004404        0.01      0.01      0.53      0.01         0.01
  WS02003072WS02003073        0.01      0.01      0.01      6.20         0.01
  HS02004480HS02004478        0.01      0.01      0.01      0.41         0.01
  YS02001759YS02001757        6.32      6.32      6.35      0.01         0.01
  YS02001762YS02001759        6.31      6.31      6.32      0.01         0.01
  YS02001765YS02001762        6.30      6.30      6.31      0.01         0.01
  YS02001770YS02001767        6.29      6.29      6.29      0.44         0.83
  YS02001774YS02001770        6.28      6.28      6.31      0.01         0.01
  YS02001779YS02001774        6.11      6.11      6.31      0.01         0.01
  YS02001649YS02001757        6.31      6.31      6.35      0.01         0.01
  YS02001767YS02001765        6.29      6.29      6.30      0.01         0.01
  YS02006561YS02001783        0.37      0.37      1.23      0.01         0.01
  YS02001783YS02001784        1.12      1.23      1.18      1.38         0.91
  YS02001784YS02001785        1.11      1.18      1.11      2.22         1.11
  YS02001788YS02001790        1.10      1.10      2.48      0.01         0.01
  YS02001790YS02001791        2.48      2.48      2.61      0.01         0.01
  YS02001791YS02001793        2.61      2.61      2.89      0.01         0.01
  YS02001910YS02001907        1.11      1.11      1.69      0.01         0.01
  YS02001786YS02001788        1.10      1.11      1.10      1.87         1.09
  YS02001915YS02001910        0.67      0.67      1.11      0.01         0.01
  YS02001918YS02001915        0.01      0.01      0.67      0.01         0.01
  YS02001629YS02163301        6.27      6.27      6.28      0.01         0.01
  YS02001619YS02001622        5.94      5.94      5.98      0.01         0.01
  YS02001622YS02001625        5.98      5.98      6.26      0.01         0.01
  YS02001625YS02001629        5.97      5.97      6.26      0.01         0.01
  YS02163301YS02001633        6.28      6.28      6.29      0.01         0.01
  YS02163601YS02164001        6.29      6.29      6.32      0.01         0.01
  YS02164001YS02001641        6.29      6.29      6.29      0.01         0.03
  YS02001641YS02001644        6.29      6.29      6.30      1.41         1.43
  YS02001647YS02001649        6.23      6.23      6.31      0.01         0.01
  YS02006553YS02006556        1.42      1.42      1.74      0.01         0.01
  YS02006556YS02006558        1.57      1.57      1.82      0.01         0.01
  YS02001907YS02006553        2.23      2.23      2.41      0.01         0.01
  YS02006558YS02006561        0.81      1.37      0.81      2.09         0.81
  YS02001633YS02163601        6.29      6.29      6.32      0.01         0.01
  YS02001644YS02001647        6.23      6.23      6.30      0.01         0.01
  YS02001745YS02001748        0.01      0.01      5.74      0.01         0.01
  YS02001748YS02001751        5.82      5.82      5.94      0.01         0.01
  YS02001751YS02001754        5.94      5.94      6.13      0.01         0.01
  YS02001754YS02001757        6.21      6.21      6.35      0.01         0.01
  YS02001882YS02001884        0.68      0.68      0.74      0.01         0.01
  YS02001884YS02001887        0.81      0.81      0.94      0.01         0.01
  YS02001890YS02001895        0.63      0.63      1.16      0.01         0.01
  YS02001895YS02001898        0.60      0.60      0.63      0.01         0.01
  YS02001898YS02001901        0.65      0.65      0.81      0.01         0.01
  YS02001901YS02001904        0.77      0.77      0.81      0.01         0.01
  YS02001904YS02001907        0.77      0.77      1.77      0.01         0.01
  YS02001887YS02001890        1.03      1.03      1.09      0.01         0.01
  YS02001652YS02001649        6.24      6.24      6.31      0.01         0.01
  YS02001655YS02001652        5.97      5.97      6.19      0.01         0.01
  YS02001658YS02001655        5.80      5.80      5.97      0.01         0.01
  YS02001661YS02001658        0.21      0.21      5.80      0.01         0.01
  YS02001664YS02001661        0.01      0.01      1.22      0.01         0.01
  YS02001793JiankangQianchi        2.82      2.82      3.97      0.01         0.01
  YS02001757CaochengTiaoxuchi        5.62      5.62      6.35      0.01         0.01
  
  
  ***************
  Pumping Summary
  ***************
  
  ---------------------------------------------------------------------------------------------------------
                                                  Min       Avg       Max     Total     Power    % Time Off
                        Percent   Number of      Flow      Flow      Flow    Volume     Usage    Pump Curve
  Pump                 Utilized   Start-Ups       LPS       LPS       LPS  10^6 ltr     Kw-hr    Low   High
  ---------------------------------------------------------------------------------------------------------
  CC-Pump-1               78.71           1      0.00    197.47    200.00     4.450      4.75    0.0    6.6
  CC-Pump-2                6.25           1      0.00    133.68    200.00     0.240      0.30    0.0    0.0
  JK-Pump-1               43.75           1      0.00    262.29    300.00     2.219     21.53    0.0    0.0
  JK-Pump-2               89.58           1      0.00    242.37    300.00     5.513     52.13    0.0    0.0
  XR-Pump-1               66.67           2      0.00     91.15     95.00     1.710     10.65    0.0    0.0
  XR-Pump-2               43.75           1      0.00     90.89     95.00     1.140     13.28    0.0    0.0
  XR-Pump-3               89.58           1      0.00     94.15     95.00     2.394     18.01    0.0    0.0
  XR-Pump-4               97.92           1      0.00     94.03     95.00     2.622     20.97    0.0    0.0
  

  Analysis begun on:  Wed Dec 15 10:53:01 2021
  Analysis ended on:  Wed Dec 15 10:53:05 2021
  Total elapsed time: 00:00:04