
  EPA STORM WATER MANAGEMENT MODEL - VERSION 5.1 (Build 5.3.0.dev0)
  --------------------------------------------------------------

  WARNING 04: minimum elevation drop used for Conduit WS02004404WS02004405
  WARNING 03: negative offset ignored for Link YS02001904YS02001907
  
  *********************************************************
  NOTE: The summary statistics displayed in this report are
  based on results found at every computational time step,  
  not just on results from each reporting time step.
  *********************************************************
  
  ****************
  Analysis Options
  ****************
  Flow Units ............... LPS
  Process Models:
    Rainfall/Runoff ........ YES
    RDII ................... NO
    Snowmelt ............... NO
    Groundwater ............ NO
    Flow Routing ........... YES
    Ponding Allowed ........ NO
    Water Quality .......... NO
  Infiltration Method ...... HORTON
  Flow Routing Method ...... DYNWAVE
  Surcharge Method ......... EXTRAN
  Starting Date ............ 08/28/2015 08:00:00
  Ending Date .............. 08/28/2015 16:00:00
  Antecedent Dry Days ...... 8.0
  Report Time Step ......... 00:01:00
  Wet Time Step ............ 00:01:00
  Dry Time Step ............ 00:01:00
  Routing Time Step ........ 5.00 sec
  Variable Time Step ....... YES
  Maximum Trials ........... 8
  Number of Threads ........ 4
  Head Tolerance ........... 0.001500 m
  
  
  **************************        Volume         Depth
  Runoff Quantity Continuity     hectare-m            mm
  **************************     ---------       -------
  Total Precipitation ......         3.868         8.469
  Evaporation Loss .........         0.000         0.000
  Infiltration Loss ........         0.986         2.159
  Surface Runoff ...........         1.929         4.224
  Final Storage ............         0.954         2.088
  Continuity Error (%) .....        -0.016
  
  
  **************************        Volume        Volume
  Flow Routing Continuity        hectare-m      10^6 ltr
  **************************     ---------     ---------
  Dry Weather Inflow .......         0.630         6.296
  Wet Weather Inflow .......         1.928        19.283
  Groundwater Inflow .......         0.000         0.000
  RDII Inflow ..............         0.000         0.000
  External Inflow ..........         0.105         1.045
  External Outflow .........         2.075        20.754
  Flooding Loss ............         0.118         1.185
  Evaporation Loss .........         0.000         0.000
  Exfiltration Loss ........         0.000         0.000
  Initial Stored Volume ....         0.076         0.761
  Final Stored Volume ......         0.618         6.181
  Continuity Error (%) .....        -2.685
  
  
  *************************
  Highest Continuity Errors
  *************************
  Node YS02001774 (42.88%)
  Node HS02004842 (20.88%)
  Node YS02001884 (15.16%)
  Node JK-storage (-12.91%)
  Node YSB1171 (4.65%)
  
  
  ***************************
  Time-Step Critical Elements
  ***************************
  Link WS02006252WS02006251 (64.68%)
  Link 3 (29.69%)
  Link WS02006280WS02006229 (1.37%)
  Link WS02006238WS02006235 (1.18%)
  
  
  ********************************
  Highest Flow Instability Indexes
  ********************************
  Link WS02006113WS02006111 (37)
  Link YS02001774YS02001770 (28)
  Link YS02001779YS02001774 (28)
  Link WS02006111WS02006112 (26)
  Link YS02001765YS02001762 (23)
  
  
  *************************
  Routing Time Step Summary
  *************************
  Minimum Time Step           :     0.50 sec
  Average Time Step           :     0.81 sec
  Maximum Time Step           :     5.00 sec
  Percent in Steady State     :    -0.00
  Average Iterations per Step :     4.09
  Percent Not Converging      :    20.00
  
  
  ***************************
  Subcatchment Runoff Summary
  ***************************
  
  ------------------------------------------------------------------------------------------------------------------------------
                            Total      Total      Total      Total     Imperv       Perv      Total       Total     Peak  Runoff
                           Precip      Runon       Evap      Infil     Runoff     Runoff     Runoff      Runoff   Runoff   Coeff
  Subcatchment                 mm         mm         mm         mm         mm         mm         mm    10^6 ltr      LPS
  ------------------------------------------------------------------------------------------------------------------------------
  sub0                       8.47       0.00       0.00       0.59       6.61       0.00       6.61        0.01     1.03   0.781
  sub1                       8.47       0.00       0.00       0.93       6.28       0.00       6.28        0.04     7.43   0.742
  sub2                       8.47       0.00       0.00       3.13       4.43       0.00       4.43        0.04     7.08   0.523
  sub3                       8.47       0.00       0.00       3.13       4.39       0.00       4.39        0.10    15.91   0.519
  sub4                       8.47       0.00       0.00       0.93       6.14       0.00       6.14        0.13    19.23   0.725
  sub5                       8.47       0.00       0.00       0.59       6.56       0.00       6.56        0.07    13.22   0.775
  sub7                       8.47       0.00       0.00       0.76       6.45       0.00       6.45        0.02     4.04   0.762
  sub8                       8.47       0.00       0.00       0.76       6.44       0.00       6.44        0.04     7.54   0.761
  sub9                       8.47       0.00       0.00       0.76       6.44       0.00       6.44        0.03     5.65   0.760
  sub10                      8.47       0.00       0.00       0.68       6.50       0.00       6.50        0.07    12.87   0.767
  sub11                      8.47       0.00       0.00       0.68       6.52       0.00       6.52        0.08    13.93   0.769
  sub12                      8.47       0.00       0.00       1.10       6.18       0.00       6.18        0.05    10.23   0.730
  sub14                      8.47       0.00       0.00       0.76       6.44       0.00       6.44        0.06    11.15   0.760
  sub15                      8.47       0.00       0.00       2.54       4.95       0.00       4.95        0.09    15.40   0.584
  sub16                      8.47       0.00       0.00       2.79       4.76       0.00       4.76        0.05     9.37   0.562
  sub17                      8.47       0.00       0.00       2.71       4.82       0.00       4.82        0.04     7.75   0.570
  sub22                      8.47       0.00       0.00       3.64       4.04       0.00       4.04        0.26    47.08   0.477
  sub23                      8.47       0.00       0.00       3.13       4.47       0.00       4.47        0.21    39.46   0.527
  sub60                      8.47       0.00       0.00       1.02       4.79       0.00       4.79        1.45   149.28   0.566
  sub61                      8.47       0.00       0.00       1.44       4.98       0.00       4.98        1.54   180.35   0.588
  sub62                      8.47       0.00       0.00       0.68       5.38       0.00       5.38        1.66   187.08   0.636
  sub63                      8.47       0.00       0.00       2.46       4.39       0.00       4.39        1.33   164.01   0.518
  sub64                      8.47       0.00       0.00       1.27       4.59       0.00       4.59        1.40   141.99   0.542
  sub65                      8.47       0.00       0.00       1.10       4.66       0.00       4.66        1.43   144.28   0.550
  sub66                      8.47       0.00       0.00       2.46       3.97       0.00       3.97        1.22   129.20   0.469
  sub67                      8.47       0.00       0.00       0.68       5.78       0.00       5.78        1.78   226.25   0.683
  sub68                      8.47       0.00       0.00       1.19       5.26       0.00       5.26        1.62   196.27   0.622
  sub69                      8.47       0.00       0.00       1.27       5.55       0.00       5.55        1.30   176.57   0.655
  sub70                      8.47       5.66       0.00       4.80       7.17       0.00       7.17        1.64   167.69   0.507
  sub71                      8.47       0.00       0.00       0.68       5.20       0.00       5.20        1.23   132.38   0.614
  sub72                      8.47       0.00       0.00       0.59       3.93       0.00       3.93        0.80    64.98   0.464
  sub73                      8.47       6.98       0.00       5.25       7.59       0.00       7.59        1.78   149.38   0.492
  sub74                      8.47       0.00       0.00       6.35       1.66       0.00       1.66        0.66    93.55   0.196
  
  
  ******************
  Node Depth Summary
  ******************
  
  ---------------------------------------------------------------------------------
                                 Average  Maximum  Maximum  Time of Max    Reported
                                   Depth    Depth      HGL   Occurrence   Max Depth
  Node                 Type       Meters   Meters   Meters  days hr:min      Meters
  ---------------------------------------------------------------------------------
  WS02001211           JUNCTION     0.70     0.72     5.56     0  02:39        0.72
  WS02001212           JUNCTION     0.42     0.45     5.51     0  02:38        0.45
  WS02001213           JUNCTION     0.65     0.71     5.47     0  02:37        0.71
  WS02003069           JUNCTION     0.47     0.55     5.14     0  02:37        0.55
  WS02003072           JUNCTION     0.53     0.61     4.98     0  02:37        0.61
  WS02003073           JUNCTION     0.32     0.37     4.44     0  02:38        0.37
  WS02003060           JUNCTION     0.42     0.49     5.42     0  02:36        0.49
  WS02003066           JUNCTION     0.24     0.30     5.85     0  02:34        0.30
  WS02003059           JUNCTION     0.71     0.77     5.45     0  02:37        0.77
  WS02003067           JUNCTION     0.59     0.70     6.02     0  02:34        0.70
  WS02004401           JUNCTION     0.70     0.86     6.86     0  02:31        0.86
  WS02004402           JUNCTION     0.73     0.88     6.84     0  02:32        0.88
  WS02004403           JUNCTION     0.75     0.90     6.83     0  02:31        0.90
  WS02004404           JUNCTION     0.82     0.97     6.82     0  02:31        0.97
  WS02004406           JUNCTION     0.83     0.96     6.79     0  02:32        0.96
  WS02004409           JUNCTION     0.52     0.67     6.44     0  02:33        0.67
  WS02004410           JUNCTION     0.53     0.69     6.41     0  02:33        0.69
  WS02004411           JUNCTION     0.55     0.70     6.38     0  02:34        0.70
  WS02004412           JUNCTION     0.56     0.70     6.34     0  02:34        0.70
  WS02004413           JUNCTION     0.72     0.86     6.33     0  02:34        0.86
  WS02004405           JUNCTION     0.82     0.96     6.81     0  02:31        0.96
  WS02006109           JUNCTION     0.78     0.97     7.59     0  02:29        0.97
  WS02006110           JUNCTION     0.77     0.92     7.51     0  02:29        0.92
  WS02006111           JUNCTION     0.23     0.29     6.99     0  02:30        0.29
  WS02006112           JUNCTION     0.87     1.06     6.95     0  03:00        1.06
  WS02006113           JUNCTION     0.35     0.46     7.35     0  02:29        0.46
  WS02006115           JUNCTION     0.59     0.76     6.90     0  02:31        0.76
  WS02006116           JUNCTION     0.67     0.84     6.88     0  02:31        0.84
  WS02006230           JUNCTION     0.75     1.02     7.76     0  02:29        1.02
  WS02006231           JUNCTION     0.50     0.68     7.81     0  02:30        0.68
  WS02006232           JUNCTION     0.64     0.81     7.85     0  03:08        0.81
  WS02006234           JUNCTION     0.56     0.75     7.91     0  03:09        0.75
  WS02006235           JUNCTION     0.59     0.79     7.95     0  03:10        0.79
  WS02006238           JUNCTION     0.62     0.82     7.96     0  03:10        0.82
  WS02006240           JUNCTION     0.51     0.74     8.03     0  03:11        0.74
  WS02006242           JUNCTION     0.57     0.81     8.08     0  03:11        0.81
  WS02006243           JUNCTION     0.44     0.70     8.12     0  03:11        0.70
  WS02006245           JUNCTION     0.42     0.67     8.15     0  03:11        0.67
  WS02006247           JUNCTION     0.44     0.68     8.18     0  03:11        0.68
  WS02006248           JUNCTION     0.38     0.61     8.20     0  03:11        0.61
  WS02006249           JUNCTION     0.41     0.62     8.22     0  03:11        0.62
  WS02006239           JUNCTION     0.57     0.79     8.00     0  03:11        0.79
  WS02006251           JUNCTION     0.40     0.65     8.32     0  03:10        0.65
  WS02006252           JUNCTION     0.34     0.59     8.84     0  03:13        0.59
  WS02006253           JUNCTION     0.42     0.67     8.32     0  03:10        0.67
  WS02006256           JUNCTION     1.07     1.21     8.14     0  03:11        1.21
  WS02004138           JUNCTION     0.16     0.17     7.42     0  00:24        0.17
  WS02004407           JUNCTION     0.23     0.30     6.61     0  02:32        0.30
  WS02006228           JUNCTION     0.78     1.01     7.66     0  02:29        1.01
  WS02006229           JUNCTION     0.76     1.01     7.70     0  02:29        1.01
  WS02006280           JUNCTION     0.07     0.14     8.41     0  02:27        0.14
  WS02006284           JUNCTION     0.36     0.48     8.88     0  02:27        0.48
  WS02006287           JUNCTION     0.10     0.21     9.16     0  02:27        0.21
  WSF200               JUNCTION     0.23     0.31     5.55     0  02:34        0.31
  HS02004901           JUNCTION     0.12     0.22    10.04     0  02:25        0.22
  HS02004881           JUNCTION     0.01     0.02     9.05     0  02:26        0.02
  HS02004876           JUNCTION     0.04     0.10     9.13     0  02:25        0.10
  HS02004870           JUNCTION     0.01     0.04     9.33     0  02:26        0.04
  HS02004862           JUNCTION     0.02     0.05     9.43     0  02:27        0.05
  HS02004856           JUNCTION     0.08     0.11     9.53     0  02:26        0.11
  HS02004852           JUNCTION     0.01     0.03     9.54     0  02:27        0.03
  HS02004848           JUNCTION     0.01     0.03     9.63     0  02:26        0.03
  HS02004842           JUNCTION     0.33     0.36     9.63     0  02:26        0.36
  HS02004837           JUNCTION     0.03     0.05     9.63     0  02:26        0.05
  HS02004830           JUNCTION     0.04     0.06     9.53     0  02:26        0.06
  HS02004824           JUNCTION     0.02     0.04     9.45     0  02:27        0.04
  HS02004817           JUNCTION     0.44     0.53     9.37     0  02:27        0.53
  HS02004807           JUNCTION     0.12     0.20     9.37     0  02:27        0.20
  HS02004802           JUNCTION     0.16     0.24     9.37     0  02:27        0.24
  HS02004799           JUNCTION     0.12     0.25     9.46     0  02:25        0.25
  HS02004792           JUNCTION     0.03     0.09     9.62     0  02:25        0.09
  HS02004788           JUNCTION     0.03     0.07     9.97     0  02:26        0.07
  HS02004785           JUNCTION     0.05     0.13    10.03     0  02:25        0.13
  HS02004777           JUNCTION     0.15     0.24    10.04     0  02:25        0.24
  HS02004770           JUNCTION     0.12     0.21    10.04     0  02:25        0.21
  HS02004480           JUNCTION     0.08     0.19     9.43     0  02:26        0.19
  HS02004479           JUNCTION     0.12     0.23     9.43     0  02:25        0.23
  HS02004478           JUNCTION     0.06     0.12     9.35     0  02:26        0.12
  YS02001745           JUNCTION     0.59     0.85     8.37     0  04:09        0.84
  YS02001748           JUNCTION     0.97     1.63     8.71     0  03:30        1.28
  YS02001751           JUNCTION     1.15     2.20     9.08     0  02:55        1.49
  YS02001754           JUNCTION     1.40     2.10     8.71     0  03:11        1.76
  YS02001762           JUNCTION     1.60     2.02     8.42     0  04:11        1.98
  YS02001765           JUNCTION     1.56     1.96     8.41     0  04:11        1.93
  YS02001767           JUNCTION     1.52     1.91     8.40     0  04:07        1.89
  YS02001770           JUNCTION     1.51     1.90     8.39     0  04:00        1.89
  YS02001774           JUNCTION     1.58     1.96     8.38     0  04:01        1.95
  YS02001779           JUNCTION     1.33     1.68     8.37     0  03:58        1.68
  YS02001882           JUNCTION     0.36     0.63     7.34     0  03:01        0.63
  YS02001884           JUNCTION     0.46     0.73     7.34     0  03:01        0.72
  YS02001759           JUNCTION     1.64     2.05     8.41     0  04:11        2.01
  YS02001887           JUNCTION     0.54     0.80     7.34     0  03:01        0.80
  YS02001890           JUNCTION     0.57     0.83     7.34     0  03:02        0.83
  YS02001898           JUNCTION     0.33     0.59     7.32     0  03:02        0.58
  YS02001901           JUNCTION     0.45     0.71     7.32     0  03:02        0.71
  YS02001904           JUNCTION     0.43     0.69     7.32     0  03:02        0.69
  YS02001907           JUNCTION     0.76     1.04     7.33     0  03:02        1.03
  YS02001910           JUNCTION     0.55     0.81     7.32     0  03:02        0.81
  YS02001915           JUNCTION     0.35     0.60     7.32     0  03:02        0.60
  YS02001918           JUNCTION     0.11     0.25     7.32     0  03:00        0.25
  YS02001619           JUNCTION     1.12     1.61     8.54     0  03:15        1.61
  YS02001629           JUNCTION     1.47     1.85     8.40     0  03:24        1.84
  YS02001641           JUNCTION     1.57     1.93     8.37     0  03:57        1.93
  YS02001644           JUNCTION     1.58     1.92     8.35     0  03:49        1.92
  YS02001652           JUNCTION     1.42     2.08     8.67     0  02:52        1.80
  YS02001655           JUNCTION     1.18     2.20     9.05     0  02:52        1.56
  YS02001920           JUNCTION     0.21     0.32     7.33     0  03:01        0.32
  YS02001923           JUNCTION     0.08     0.12     7.38     0  03:02        0.12
  YS02001926           JUNCTION     0.17     0.23     7.67     0  03:02        0.23
  YS02001929           JUNCTION     0.09     0.12     7.81     0  03:01        0.12
  YS02001658           JUNCTION     0.91     2.30     9.44     0  03:15        1.29
  YS02001661           JUNCTION     0.70     1.40     8.81     0  04:02        1.04
  YS02001664           JUNCTION     0.29     0.56     8.49     0  04:02        0.53
  YS02001622           JUNCTION     1.14     1.62     8.52     0  03:22        1.56
  YS02001633           JUNCTION     1.56     1.95     8.40     0  03:59        1.94
  YS02001649           JUNCTION     1.61     2.05     8.44     0  03:24        1.99
  YS02001757           JUNCTION     1.74     2.16     8.42     0  04:11        2.11
  YS02001895           JUNCTION     0.33     0.58     7.33     0  03:01        0.58
  YS02001625           JUNCTION     1.42     1.78     8.38     0  03:22        1.78
  YS02163301           JUNCTION     1.50     1.89     8.41     0  03:30        1.87
  YS02163601           JUNCTION     1.61     1.99     8.39     0  03:59        1.99
  YS02164001           JUNCTION     1.55     1.92     8.38     0  03:58        1.92
  YS02001647           JUNCTION     1.41     1.80     8.41     0  04:03        1.76
  YSB1154              JUNCTION     0.26     0.38     9.43     0  02:26        0.38
  YSB6556              JUNCTION     0.15     0.26     9.43     0  02:26        0.26
  YSB1174              JUNCTION     0.21     0.32     9.43     0  02:26        0.32
  YSB1171              JUNCTION     0.41     0.53     9.43     0  02:25        0.53
  YS02006553           JUNCTION     0.77     1.05     7.33     0  03:02        1.04
  YS02006561           JUNCTION     0.18     0.35     7.01     0  03:02        0.34
  YS02006556           JUNCTION     0.74     1.01     7.32     0  03:02        1.00
  YS02006558           JUNCTION     0.78     1.06     7.33     0  03:02        1.04
  YS02001783           JUNCTION     0.32     0.60     6.74     0  03:02        0.59
  YS02001784           JUNCTION     0.35     0.61     6.68     0  03:03        0.60
  YS02001786           JUNCTION     0.30     0.51     6.54     0  03:04        0.51
  YS02001788           JUNCTION     0.22     0.40     6.38     0  03:04        0.40
  YS02001790           JUNCTION     0.27     0.48     6.12     0  03:04        0.48
  YS02001791           JUNCTION     0.17     0.29     5.76     0  03:04        0.29
  YS02001793           JUNCTION     0.11     0.19     5.02     0  03:02        0.19
  WS02004139           JUNCTION     0.64     0.66     5.57     0  02:39        0.66
  WSC                  OUTFALL      0.32     0.37     1.04     0  02:38        0.37
  3                    OUTFALL      0.10     0.21     6.21     0  03:11        0.21
  4                    OUTFALL      0.01     0.12     7.12     0  03:11        0.12
  5                    OUTFALL      0.00     0.00     5.00     0  00:00        0.00
  JK-storage           STORAGE      0.60     3.49     4.29     0  04:10        3.49
  CC-storage           STORAGE      0.95     1.36     8.36     0  04:16        1.36
  XR-storage           STORAGE      5.70     7.72     5.72     0  04:32        7.72
  
  
  *******************
  Node Inflow Summary
  *******************
  
  -------------------------------------------------------------------------------------------------
                                  Maximum  Maximum                  Lateral       Total        Flow
                                  Lateral    Total  Time of Max      Inflow      Inflow     Balance
                                   Inflow   Inflow   Occurrence      Volume      Volume       Error
  Node                 Type           LPS      LPS  days hr:min    10^6 ltr    10^6 ltr     Percent
  -------------------------------------------------------------------------------------------------
  WS02001211           JUNCTION      7.35   293.22     0  03:42       0.212        8.07       0.184
  WS02001212           JUNCTION      0.00   293.89     0  03:42           0        8.06       0.102
  WS02001213           JUNCTION      0.00   294.49     0  03:41           0        8.05       0.157
  WS02003069           JUNCTION      0.32   853.84     0  02:36     0.00922        16.6       0.106
  WS02003072           JUNCTION      0.00   853.83     0  02:37           0        16.6       0.145
  WS02003073           JUNCTION      1.82   855.66     0  02:37      0.0524        16.6       0.158
  WS02003060           JUNCTION     16.53   853.52     0  02:36       0.476        16.6       0.098
  WS02003066           JUNCTION      0.00   545.37     0  02:34           0        8.12       0.045
  WS02003059           JUNCTION      0.00   295.58     0  03:41           0        8.04       0.307
  WS02003067           JUNCTION      0.00   545.36     0  02:34           0        8.13       0.099
  WS02004401           JUNCTION      0.00   545.81     0  02:30           0        8.32       0.199
  WS02004402           JUNCTION      0.00   545.74     0  02:31           0         8.3       0.193
  WS02004403           JUNCTION      0.00   545.70     0  02:31           0        8.29       0.180
  WS02004404           JUNCTION      0.16   545.81     0  02:31     0.00467        8.28       0.141
  WS02004406           JUNCTION      0.00   545.85     0  02:31           0        8.25       0.346
  WS02004409           JUNCTION      0.00   545.82     0  02:32           0        8.21       0.145
  WS02004410           JUNCTION      0.00   545.62     0  02:32           0         8.2       0.173
  WS02004411           JUNCTION      0.00   545.49     0  02:33           0        8.19       0.185
  WS02004412           JUNCTION      0.00   545.41     0  02:33           0        8.17       0.207
  WS02004413           JUNCTION      0.00   545.37     0  02:34           0        8.16       0.317
  WS02004405           JUNCTION      0.04   545.83     0  02:32      0.0011        8.27       0.211
  WS02006109           JUNCTION      1.23   539.35     0  02:29      0.0354        8.36       0.180
  WS02006110           JUNCTION      0.00   539.35     0  02:29           0        8.35       0.154
  WS02006111           JUNCTION      0.00   561.22     0  02:29           0        8.33       0.024
  WS02006112           JUNCTION      7.75   550.31     0  02:29      0.0414        8.37       0.283
  WS02006113           JUNCTION      0.00   539.58     0  02:29           0        8.33       0.057
  WS02006115           JUNCTION      0.00   548.90     0  02:36           0        8.35       0.168
  WS02006116           JUNCTION      0.00   546.06     0  02:29           0        8.33       0.152
  WS02006230           JUNCTION     10.28   390.07     0  03:20       0.296        7.03       0.130
  WS02006231           JUNCTION      0.00   379.01     0  03:20           0        6.74       0.026
  WS02006232           JUNCTION      0.00   379.00     0  03:20           0        6.75       0.119
  WS02006234           JUNCTION      0.00   378.91     0  03:20           0        6.75       0.004
  WS02006235           JUNCTION      0.00   378.89     0  03:20           0        6.79       0.079
  WS02006238           JUNCTION      0.00   290.12     0  03:21           0        4.54       0.043
  WS02006240           JUNCTION      0.00   289.90     0  03:21           0        4.51       0.031
  WS02006242           JUNCTION      0.00   289.85     0  03:21           0         4.5       0.046
  WS02006243           JUNCTION      0.00   288.97     0  03:20           0        4.49      -0.045
  WS02006245           JUNCTION      0.00   288.67     0  03:20           0        4.49       0.035
  WS02006247           JUNCTION      0.00   288.45     0  03:20           0        4.49       0.009
  WS02006248           JUNCTION      0.00   288.19     0  03:20           0        4.49      -0.015
  WS02006249           JUNCTION      0.00   424.24     0  03:10           0        4.64       0.038
  WS02006239           JUNCTION      0.00   290.05     0  03:21           0        4.53       0.040
  WS02006251           JUNCTION      0.08   424.71     0  03:10     0.00222        4.64       0.001
  WS02006252           JUNCTION      0.00   400.00     0  03:10           0        4.41       0.002
  WS02006253           JUNCTION      1.03    41.74     0  02:26     0.00535       0.235      -0.077
  WS02006256           JUNCTION      0.00   600.00     0  02:16           0         6.3       0.026
  WS02004138           JUNCTION      0.00   285.00     0  00:40           0        7.87       0.001
  WS02004407           JUNCTION      0.00   545.83     0  02:32           0        8.22       0.062
  WS02006228           JUNCTION      0.00   538.12     0  02:29           0        8.34       0.110
  WS02006229           JUNCTION      0.00   538.09     0  02:29           0        8.34       0.092
  WS02006280           JUNCTION      0.00   204.81     0  02:27           0        1.32       0.005
  WS02006284           JUNCTION      0.10   204.80     0  02:27     0.00275        1.32       0.087
  WS02006287           JUNCTION      0.00   204.70     0  02:27           0        1.32       0.053
  WSF200               JUNCTION      0.00   545.37     0  02:34           0        8.12       0.042
  HS02004901           JUNCTION      9.37     9.37     0  02:23      0.0498      0.0501       3.639
  HS02004881           JUNCTION      4.04    40.76     0  02:26      0.0217        0.23       0.121
  HS02004876           JUNCTION      7.43    36.75     0  02:26      0.0418       0.209       0.254
  HS02004870           JUNCTION      7.54    29.42     0  02:26      0.0412       0.167       0.065
  HS02004862           JUNCTION      7.28    22.06     0  02:26       0.047       0.126       0.133
  HS02004856           JUNCTION      5.65    14.84     0  02:26       0.031      0.0805       1.821
  HS02004852           JUNCTION      0.00     9.33     0  02:26           0      0.0496       0.105
  HS02004848           JUNCTION     15.91    15.91     0  02:26      0.0989      0.0989       0.045
  HS02004842           JUNCTION      0.00     6.79     0  02:52           0      0.0623      26.383
  HS02004837           JUNCTION     19.22    25.66     0  02:25       0.255       0.304       0.260
  HS02004830           JUNCTION      0.15    25.80     0  02:26     0.00432       0.294       0.421
  HS02004824           JUNCTION     19.28    44.91     0  02:27       0.129       0.422       0.128
  HS02004817           JUNCTION      0.60    45.51     0  02:27      0.0173       0.439       3.943
  HS02004807           JUNCTION     13.93    58.94     0  02:27      0.0757       0.498       0.875
  HS02004802           JUNCTION      0.00    59.00     0  02:28           0       0.495       0.802
  HS02004799           JUNCTION     11.15   123.20     0  02:25      0.0613       0.714       0.358
  HS02004792           JUNCTION     47.36   112.13     0  02:24       0.263       0.653       0.063
  HS02004788           JUNCTION     17.07    65.26     0  02:25       0.133       0.391       0.099
  HS02004785           JUNCTION      0.15    48.39     0  02:25     0.00432        0.26       0.185
  HS02004777           JUNCTION      0.03    48.40     0  02:24    0.000864        0.26       2.033
  HS02004770           JUNCTION     39.46    48.64     0  02:23       0.213       0.261       1.200
  HS02004480           JUNCTION      0.00   146.07     0  02:25           0       0.839       0.126
  HS02004479           JUNCTION      0.00    23.09     0  02:27           0       0.137       0.536
  HS02004478           JUNCTION      0.00   204.69     0  02:26           0        1.32       0.031
  YS02001745           JUNCTION    149.28   434.21     0  03:22        1.45        1.51       0.757
  YS02001748           JUNCTION      0.04   528.19     0  03:22      0.0013        1.51       1.506
  YS02001751           JUNCTION      0.01   337.62     0  02:55    0.000317        1.42       1.604
  YS02001754           JUNCTION      0.26   210.71     0  03:16     0.00749        1.41       1.794
  YS02001762           JUNCTION      0.00   197.82     0  02:58           0        1.58       1.360
  YS02001765           JUNCTION      0.00   196.07     0  02:58           0        1.58       1.576
  YS02001767           JUNCTION      0.54   194.50     0  02:58      0.0154         1.6       2.300
  YS02001770           JUNCTION    187.24   192.74     0  02:58        1.66        1.67       1.951
  YS02001774           JUNCTION      0.00    32.92     0  01:57           0       0.059      75.085
  YS02001779           JUNCTION      0.01    21.31     0  02:25    0.000144      0.0257     147.644
  YS02001882           JUNCTION      0.00     9.23     0  02:53           0      0.0105      22.054
  YS02001884           JUNCTION      0.00    12.09     0  02:52           0      0.0354      17.869
  YS02001759           JUNCTION    180.39   377.13     0  02:58        1.54        3.08       0.750
  YS02001887           JUNCTION    226.70   229.64     0  03:01         1.8        1.82       0.425
  YS02001890           JUNCTION      0.00   229.23     0  03:01           0        1.78       0.473
  YS02001898           JUNCTION      0.00   233.27     0  03:02           0        1.77       0.148
  YS02001901           JUNCTION      0.00   229.39     0  03:01           0        1.77       0.345
  YS02001904           JUNCTION      0.00   230.46     0  03:02           0        1.76       0.318
  YS02001907           JUNCTION      0.00   454.53     0  03:03           0        3.85       0.598
  YS02001910           JUNCTION      0.00   209.04     0  03:04           0         2.1       0.516
  YS02001915           JUNCTION    132.40   202.06     0  03:02        1.23        2.11       0.245
  YS02001918           JUNCTION      0.00    70.11     0  03:01           0       0.879       0.170
  YS02001619           JUNCTION    129.20   129.20     0  03:01        1.22        1.22       0.967
  YS02001629           JUNCTION      0.00   161.83     0  03:01           0        1.14       2.536
  YS02001641           JUNCTION      0.00   296.44     0  03:14           0        2.47       0.864
  YS02001644           JUNCTION    142.03   429.73     0  03:00         1.4           4       0.659
  YS02001652           JUNCTION      0.00   233.72     0  03:16           0        1.27       1.892
  YS02001655           JUNCTION      0.15   359.52     0  02:52     0.00443         1.3       1.871
  YS02001920           JUNCTION      2.87    67.64     0  03:02      0.0827       0.881       0.278
  YS02001923           JUNCTION      0.04    64.78     0  03:02     0.00109       0.799       0.050
  YS02001926           JUNCTION      0.05    64.97     0  03:01      0.0015       0.801       0.344
  YS02001929           JUNCTION     64.98    64.98     0  03:01         0.8         0.8       0.050
  YS02001658           JUNCTION      0.00   547.25     0  03:15           0        1.38       1.334
  YS02001661           JUNCTION      0.00   454.60     0  03:57           0           2       0.527
  YS02001664           JUNCTION    164.01   388.08     0  03:59        1.33        1.94       0.307
  YS02001622           JUNCTION      0.00   155.13     0  03:00           0        1.21       2.686
  YS02001633           JUNCTION    144.48   296.48     0  03:14        1.44        2.53       1.296
  YS02001649           JUNCTION      0.00   606.49     0  02:55           0         4.1       0.912
  YS02001757           JUNCTION      0.00  1089.98     0  03:01           0         8.3       1.124
  YS02001895           JUNCTION      0.00   228.16     0  03:01           0        1.77       0.234
  YS02001625           JUNCTION      0.00   161.76     0  03:01           0        1.17       3.425
  YS02163301           JUNCTION      0.00   168.81     0  03:14           0        1.11       2.214
  YS02163601           JUNCTION      0.11   296.66     0  03:14     0.00317        2.49       1.225
  YS02164001           JUNCTION      0.00   296.66     0  03:14           0        2.47       0.824
  YS02001647           JUNCTION      0.00   430.05     0  03:00           0        2.99       0.966
  YSB1154              JUNCTION     13.22    13.22     0  02:24      0.0743      0.0752       1.961
  YSB6556              JUNCTION      0.00    13.14     0  02:25           0      0.0759       1.667
  YSB1174              JUNCTION     10.23    10.23     0  02:22       0.054      0.0546       2.410
  YSB1171              JUNCTION      0.00    23.08     0  02:25           0       0.136       4.879
  YS02006553           JUNCTION      0.00   439.22     0  03:03           0        3.84       0.392
  YS02006561           JUNCTION      0.00   664.59     0  03:02           0        5.43       0.000
  YS02006556           JUNCTION      0.00   442.41     0  03:02           0        3.84       0.280
  YS02006558           JUNCTION    197.15   647.82     0  03:02        1.64        5.46       0.100
  YS02001783           JUNCTION      0.00   636.63     0  03:02           0        5.43       0.034
  YS02001784           JUNCTION      1.06   626.89     0  03:03      0.0305        5.46       0.055
  YS02001786           JUNCTION      0.06   623.07     0  03:03     0.00162        5.46       0.053
  YS02001788           JUNCTION      0.07   621.09     0  03:04     0.00204        5.46       0.031
  YS02001790           JUNCTION      0.15   620.67     0  03:04     0.00446        5.46       0.039
  YS02001791           JUNCTION      0.00   621.77     0  03:04           0        5.46       0.021
  YS02001793           JUNCTION      0.00   619.08     0  03:04           0        5.46       0.003
  WS02004139           JUNCTION      0.32   285.32     0  00:13     0.00924        7.87       0.182
  WSC                  OUTFALL       0.00   855.66     0  02:38           0        16.6       0.000
  3                    OUTFALL       0.00   513.78     0  03:11           0        4.02       0.000
  4                    OUTFALL       0.00   142.30     0  03:11           0       0.151       0.000
  5                    OUTFALL       0.00     0.00     0  00:00           0           0       0.000 ltr
  JK-storage           STORAGE       0.00   620.78     0  03:04           0        5.61     -11.433
  CC-storage           STORAGE       0.00  1089.95     0  03:01           0        8.15       0.792
  XR-storage           STORAGE     442.93   442.93     0  03:01        8.21        8.81       0.000
  
  
  **********************
  Node Surcharge Summary
  **********************
  
  Surcharging occurs when water rises above the top of the highest conduit.
  ---------------------------------------------------------------------
                                               Max. Height   Min. Depth
                                   Hours       Above Crown    Below Rim
  Node                 Type      Surcharged         Meters       Meters
  ---------------------------------------------------------------------
  WS02006109           JUNCTION        1.55          0.154        1.666
  WS02006110           JUNCTION        0.60          0.014        1.836
  WS02006112           JUNCTION        1.07          0.065        1.615
  WS02006232           JUNCTION        1.42          0.107        1.373
  WS02006234           JUNCTION        0.95          0.032        1.208
  WS02006235           JUNCTION        1.21          0.080        1.210
  WS02006238           JUNCTION        1.27          0.098        1.332
  WS02006240           JUNCTION        0.30          0.030        1.360
  WS02006242           JUNCTION        0.82          0.077        0.743
  WS02006239           JUNCTION        0.80          0.049        1.241
  WS02006252           JUNCTION        0.42          0.193        0.907
  WS02006228           JUNCTION        1.53          0.182        2.018
  YS02001748           JUNCTION        4.37          0.550        0.640
  YS02001751           JUNCTION        4.86          1.200        0.000
  YS02001754           JUNCTION        5.34          1.052        0.098
  YS02001762           JUNCTION        5.67          1.015        0.135
  YS02001765           JUNCTION        5.63          0.961        0.139
  YS02001767           JUNCTION        5.60          0.913        0.117
  YS02001770           JUNCTION        5.57          0.869        0.051
  YS02001774           JUNCTION        5.65          0.962        0.088
  YS02001779           JUNCTION        5.31          0.680        0.000
  YS02001759           JUNCTION        5.70          1.051        0.159
  YS02001907           JUNCTION        0.24          0.035        0.915
  YS02001619           JUNCTION        4.83          0.610        0.000
  YS02001629           JUNCTION        4.91          0.470        0.000
  YS02001641           JUNCTION        5.65          0.931        0.169
  YS02001644           JUNCTION        5.65          0.920        0.000
  YS02001652           JUNCTION        5.40          1.048        0.082
  YS02001655           JUNCTION        4.99          1.200        0.000
  YS02001658           JUNCTION        4.38          1.300        0.000
  YS02001661           JUNCTION        0.04          0.331        1.059
  YS02001622           JUNCTION        5.00          0.620        0.000
  YS02001633           JUNCTION        5.62          0.926        0.134
  YS02001649           JUNCTION        5.68          1.050        0.000
  YS02001757           JUNCTION        5.81          1.158        0.052
  YS02001625           JUNCTION        5.48          0.780        0.000
  YS02163301           JUNCTION        5.59          0.888        0.142
  YS02163601           JUNCTION        5.68          0.993        0.087
  YS02164001           JUNCTION        5.63          0.922        0.178
  YS02001647           JUNCTION        5.44          0.799        0.101
  YS02006553           JUNCTION        0.37          0.050        1.140
  
  
  *********************
  Node Flooding Summary
  *********************
  
  Flooding refers to all water that overflows a node, whether it ponds or not.
  --------------------------------------------------------------------------
                                                             Total   Maximum
                                 Maximum   Time of Max       Flood    Ponded
                        Hours       Rate    Occurrence      Volume     Depth
  Node                 Flooded       LPS   days hr:min    10^6 ltr    Meters
  --------------------------------------------------------------------------
  YS02001751              0.01    143.06      0  02:55       0.000     0.000
  YS02001779              0.71      8.97      0  04:11       0.004     0.000
  YS02001619              0.01     26.21      0  03:25       0.000     0.000
  YS02001629              0.01     24.75      0  03:27       0.000     0.000
  YS02001644              2.81    362.07      0  04:20       1.139     0.000
  YS02001655              0.01    157.37      0  02:52       0.000     0.000
  YS02001658              0.01    171.47      0  03:16       0.001     0.000
  YS02001622              0.01     37.70      0  03:25       0.000     0.000
  YS02001649              0.01      7.30      0  03:24       0.000     0.000
  YS02001625              0.05     12.73      0  03:26       0.000     0.000
  XR-storage              0.80     30.55      0  04:32       0.041     0.000
  
  
  **********************
  Storage Volume Summary
  **********************
  
  --------------------------------------------------------------------------------------------------
                         Average     Avg  Evap Exfil       Maximum     Max    Time of Max    Maximum
                          Volume    Pcnt  Pcnt  Pcnt        Volume    Pcnt     Occurrence    Outflow
  Storage Unit           1000 m3    Full  Loss  Loss       1000 m3    Full    days hr:min        LPS
  --------------------------------------------------------------------------------------------------
  JK-storage               0.030      10     0     0         0.176      60       0  04:10     600.00
  CC-storage               2.655      17     0     0         3.781      24       0  04:16     400.00
  XR-storage               0.684      74     0     0         0.926     100       0  04:32     285.00
  
  
  ***********************
  Outfall Loading Summary
  ***********************
  
  -----------------------------------------------------------
                         Flow       Avg       Max       Total
                         Freq      Flow      Flow      Volume
  Outfall Node           Pcnt       LPS       LPS    10^6 ltr
  -----------------------------------------------------------
  WSC                  100.00    653.33    855.66      16.581
  3                     85.75    223.36    513.78       4.022
  4                     20.85     38.20    142.30       0.151
  5                      0.00      0.00      0.00       0.000
  -----------------------------------------------------------
  System                51.65    914.88   1492.32      20.754
  
  
  ********************
  Link Flow Summary
  ********************
  
  -----------------------------------------------------------------------------
                                 Maximum  Time of Max   Maximum    Max/    Max/
                                  |Flow|   Occurrence   |Veloc|    Full    Full
  Link                 Type          LPS  days hr:min     m/sec    Flow   Depth
  -----------------------------------------------------------------------------
  WS02003066WSF200     CONDUIT    545.37     0  02:34      2.72    0.09    0.23
  WS02006287WS02006284 CONDUIT    204.71     0  02:27      1.62    0.09    0.22
  WS02006284WS02006280 CONDUIT    204.81     0  02:27      1.86    0.09    0.20
  WS02006280WS02006229 CONDUIT    204.81     0  02:27      2.99    0.04    0.14
  WS02006229WS02006228 CONDUIT    538.12     0  02:29      1.07    1.78    1.00
  WS02006256WS02006235 CONDUIT    150.00     0  00:05      2.14    1.59    1.00
  WS02006253WS02006251 CONDUIT     40.88     0  02:26      0.43    0.12    0.94
  WS02006252WS02006251 CONDUIT    400.27     0  03:12      3.19    1.47    1.00
  WS02006251WS02006249 CONDUIT    424.24     0  03:10      1.16    1.22    0.91
  WS02006249WS02006248 CONDUIT    288.19     0  03:20      1.03    1.58    0.86
  WS02006248WS02006247 CONDUIT    288.45     0  03:20      1.00    0.63    0.91
  WS02006247WS02006245 CONDUIT    288.67     0  03:20      0.96    2.29    0.95
  WS02006245WS02006243 CONDUIT    288.97     0  03:20      0.99    0.85    0.97
  WS02006243WS02006242 CONDUIT    289.85     0  03:21      0.81    0.62    1.00
  WS02006242WS02006240 CONDUIT    289.90     0  03:21      0.75    1.15    1.00
  WS02006240WS02006239 CONDUIT    290.05     0  03:21      0.75    0.91    1.00
  WS02006239WS02006238 CONDUIT    290.12     0  03:21      0.75    0.93    1.00
  WS02006238WS02006235 CONDUIT    290.13     0  03:21      0.75    0.65    1.00
  WS02006235WS02006234 CONDUIT    378.91     0  03:20      0.98    4.00    1.00
  WS02006234WS02006232 CONDUIT    379.00     0  03:20      0.98    0.77    1.00
  WS02006232WS02006231 CONDUIT    379.01     0  03:20      1.01    0.79    0.98
  WS02006231WS02006230 CONDUIT    379.79     0  03:20      1.29    5.76    0.94
  WS02006230WS02006229 CONDUIT    391.25     0  03:20      1.02    8.71    1.00
  WS02006228WS02006109 CONDUIT    538.12     0  02:29      1.07    2.35    1.00
  WS02006116WS02004401 CONDUIT    545.81     0  02:30      0.82    0.75    0.85
  WS02006115WS02006116 CONDUIT    546.06     0  02:29      0.88    0.70    0.77
  WS02006113WS02006111 CONDUIT    561.22     0  02:29      2.46    0.67    0.46
  WS02006112WS02006115 CONDUIT    548.90     0  02:36      0.75    0.32    0.87
  WS02006111WS02006112 CONDUIT    543.24     0  02:30      1.51    0.26    0.67
  WS02006110WS02006113 CONDUIT    539.58     0  02:29      1.28    0.49    0.78
  WS02006109WS02006110 CONDUIT    539.35     0  02:29      1.07    1.04    1.00
  WS02004411WS02004412 CONDUIT    545.41     0  02:33      0.93    0.77    0.70
  WS02004401WS02004402 CONDUIT    545.74     0  02:31      0.85    0.66    0.87
  WS02004413WS02003067 CONDUIT    545.36     0  02:34      1.12    0.23    0.59
  WS02004412WS02004413 CONDUIT    545.37     0  02:34      0.83    0.37    0.78
  WS02004410WS02004411 CONDUIT    545.49     0  02:33      0.94    0.75    0.69
  WS02004409WS02004410 CONDUIT    545.62     0  02:32      0.96    0.71    0.68
  WS02004407WS02004409 CONDUIT    545.82     0  02:32      1.44    0.19    0.49
  WS02004406WS02004407 CONDUIT    545.83     0  02:32      1.05    0.24    0.63
  WS02004405WS02004406 CONDUIT    545.85     0  02:31      0.79    1.08    0.96
  WS02004404WS02004405 CONDUIT    545.79     0  02:32      0.97    5.35    0.96
  WS02004403WS02004404 CONDUIT    545.65     0  02:31      0.84    0.39    0.93
  WS02004402WS02004403 CONDUIT    545.70     0  02:31      0.87    0.78    0.89
  WS02004139WS02001211 CONDUIT    285.88     0  03:42      0.57    0.36    0.54
  WS02004138WS02004139 CONDUIT    285.00     0  00:13      2.11    0.06    0.39
  WS02003067WS02003066 CONDUIT    545.37     0  02:34      1.22    0.17    0.42
  WS02001213WS02003059 CONDUIT    295.58     0  03:41      0.59    0.49    0.73
  WS02001212WS02001213 CONDUIT    294.49     0  03:41      1.19    0.45    0.42
  WS02001211WS02001212 CONDUIT    293.89     0  03:42      0.67    0.22    0.59
  WS02003072WS02003073 CONDUIT    853.84     0  02:37      1.67    1.84    0.46
  WS02003069WS02003072 CONDUIT    853.83     0  02:37      1.57    0.41    0.48
  WS02003060WS02003069 CONDUIT    853.52     0  02:36      1.82    0.33    0.43
  WS02003059WS02003060 CONDUIT    297.07     0  03:41      0.82    0.19    0.63
  HS02004901HS02004770 CONDUIT      9.22     0  02:24      0.05    0.03    0.31
  HS02004876HS02004881 CONDUIT     36.81     0  02:26      0.59    0.39    0.09
  HS02004870HS02004876 CONDUIT     29.40     0  02:26      0.41    0.02    0.10
  HS02004842HS02004848 CONDUIT      6.79     0  02:52      0.04    0.00    0.28
  HS02004837HS02004842 CONDUIT      7.01     0  03:02      0.42    0.00    0.29
  HS02004830HS02004837 CONDUIT     25.65     0  02:26      0.46    0.03    0.08
  HS02004824HS02004830 CONDUIT     25.79     0  02:27      0.49    0.03    0.08
  HS02004817HS02004824 CONDUIT     44.91     0  02:27      0.17    0.02    0.41
  HS02004770HS02004777 CONDUIT     48.37     0  02:24      0.21    0.09    0.33
  HS02004799HS02004480 CONDUIT    123.11     0  02:25      0.58    0.16    0.31
  HS02004792HS02004799 CONDUIT    112.10     0  02:25      0.66    0.07    0.24
  HS02004788HS02004792 CONDUIT     65.23     0  02:26      0.81    0.04    0.11
  HS02004785HS02004788 CONDUIT     48.34     0  02:26      0.49    0.36    0.14
  HS02004777HS02004785 CONDUIT     48.24     0  02:25      0.26    0.06    0.26
  HS02004480HS02004478 CONDUIT    146.06     0  02:26      0.94    0.62    0.22
  HS02004479HS02004480 CONDUIT     23.22     0  02:28      0.27    0.02    0.30
  HS02004862HS02004870 CONDUIT     22.03     0  02:27      0.49    0.02    0.06
  HS02004848HS02004852 CONDUIT      9.33     0  02:26      0.33    0.01    0.04
  HS02004856HS02004862 CONDUIT     14.82     0  02:26      0.35    0.01    0.06
  HS02004852HS02004856 CONDUIT      9.30     0  02:27      0.14    0.01    0.10
  HS02004802HS02004478 CONDUIT     59.19     0  02:29      0.33    0.05    0.26
  HS02004478WS02006287 CONDUIT    204.70     0  02:27      1.31    0.06    0.17
  HS02004817HS02004807 CONDUIT     45.68     0  02:29      0.13    0.03    0.52
  HS02004807HS02004802 CONDUIT     59.00     0  02:28      0.28    0.11    0.31
  YS02001759YS02001757 CONDUIT    378.43     0  02:58      0.48    0.27    1.00
  YS02001762YS02001759 CONDUIT    199.37     0  02:58      0.25    0.23    1.00
  YS02001765YS02001762 CONDUIT    197.82     0  02:58      0.28    0.19    1.00
  YS02001770YS02001767 CONDUIT    193.97     0  02:58      0.25    0.77    1.00
  YS02001774YS02001770 CONDUIT     32.92     0  01:57      0.22    0.02    1.00
  YS02001779YS02001774 CONDUIT     21.30     0  02:25      0.05    0.01    1.00
  YS02001649YS02001757 CONDUIT    606.06     0  02:55      0.77    0.37    1.00
  YS02001767YS02001765 CONDUIT    196.07     0  02:58      0.30    0.25    1.00
  YS02006561YS02001783 CONDUIT    636.63     0  03:02      2.10    0.33    0.59
  YS02001783YS02001784 CONDUIT    625.83     0  03:03      1.55    0.86    0.75
  YS02001784YS02001785 CONDUIT    623.01     0  03:03      1.67    1.45    0.70
  YS02001788YS02001790 CONDUIT    620.52     0  03:04      2.20    0.46    0.55
  YS02001790YS02001791 CONDUIT    621.77     0  03:04      2.60    0.68    0.48
  YS02001791YS02001793 CONDUIT    619.08     0  03:04      5.12    0.27    0.30
  YS02001910YS02001907 CONDUIT    215.26     0  03:03      0.49    0.12    0.91
  YS02001786YS02001788 CONDUIT    621.02     0  03:04      2.12    1.20    0.57
  YS02001915YS02001910 CONDUIT    209.04     0  03:04      0.55    0.10    0.71
  YS02001918YS02001915 CONDUIT     74.11     0  03:13      0.44    0.04    0.42
  YS02001923YS02001920 CONDUIT     64.77     0  03:02      0.57    0.03    0.22
  YS02001926YS02001923 CONDUIT     64.74     0  03:02      0.66    0.09    0.18
  YS02001929YS02001926 CONDUIT     64.92     0  03:01      0.71    0.03    0.17
  YS02001920YS02001918 CONDUIT     70.11     0  03:01      0.57    0.07    0.29
  YS02001629YS02163301 CONDUIT    168.81     0  03:14      0.21    0.21    1.00
  YS02001619YS02001622 CONDUIT    155.13     0  03:00      0.57    0.23    1.00
  YS02001622YS02001625 CONDUIT    161.76     0  03:01      0.31    0.09    1.00
  YS02001625YS02001629 CONDUIT    161.83     0  03:01      0.21    0.08    1.00
  YS02163301YS02001633 CONDUIT    168.80     0  03:14      0.21    0.16    1.00
  YS02163601YS02164001 CONDUIT    296.66     0  03:14      0.38    0.26    1.00
  YS02164001YS02001641 CONDUIT    296.44     0  03:14      0.38    0.40    1.00
  YS02001641YS02001644 CONDUIT    296.41     0  03:14      0.38    0.96    1.00
  YS02001647YS02001649 CONDUIT    430.18     0  03:00      0.55    0.23    1.00
  YS02006553YS02006556 CONDUIT    442.41     0  03:02      0.57    0.38    0.99
  YS02006556YS02006558 CONDUIT    454.76     0  03:02      0.58    0.36    1.00
  YSB6556YSB1171       CONDUIT     13.19     0  02:28      0.06    0.01    0.57
  YS02001907YS02006553 CONDUIT    439.22     0  03:03      0.49    0.52    1.00
  YS02006558YS02006561 CONDUIT    664.59     0  03:02      3.07    1.47    0.73
  YS02001633YS02163601 CONDUIT    296.55     0  03:14      0.38    0.31    1.00
  YS02001644YS02001647 CONDUIT    430.05     0  03:00      0.55    0.25    1.00
  YS02001745YS02001748 CONDUIT    528.14     0  03:22      1.42    0.20    0.92
  YS02001748YS02001751 CONDUIT    337.61     0  02:55      1.00    0.17    1.00
  YS02001751YS02001754 CONDUIT    210.45     0  03:16      0.86    0.10    1.00
  YS02001754YS02001757 CONDUIT    210.74     0  03:16      0.33    0.08    1.00
  YS02001882YS02001884 CONDUIT     11.07     0  02:53      0.09    0.01    0.65
  YS02001884YS02001887 CONDUIT     12.09     0  02:52      0.05    0.02    0.74
  YS02001890YS02001895 CONDUIT    228.16     0  03:01      0.39    0.11    0.71
  YS02001895YS02001898 CONDUIT    233.27     0  03:02      0.51    0.40    0.57
  YS02001898YS02001901 CONDUIT    229.39     0  03:01      0.44    0.15    0.65
  YS02001901YS02001904 CONDUIT    230.46     0  03:02      0.41    0.36    0.70
  YS02001904YS02001907 CONDUIT    243.37     0  03:03      0.34    0.09    0.85
  YS02001887YS02001890 CONDUIT    229.23     0  03:01      0.34    0.39    0.79
  YS02001652YS02001649 CONDUIT    233.42     0  03:16      0.56    0.12    1.00
  YS02001655YS02001652 CONDUIT    233.72     0  03:16      0.91    0.11    1.00
  YS02001658YS02001655 CONDUIT    359.37     0  02:52      1.15    0.15    1.00
  YS02001661YS02001658 CONDUIT    547.25     0  03:15      1.49    0.21    1.00
  YS02001664YS02001661 CONDUIT    454.60     0  03:57      1.39    0.14    0.70
  YSB1154YSB6556       CONDUIT     13.14     0  02:25      0.16    0.02    0.46
  YSB1174YSB1171       CONDUIT     10.08     0  02:23      0.04    0.02    0.57
  YSB1171HS02004479    CONDUIT     23.09     0  02:27      0.54    0.02    0.44
  HS02004881HS02006253 CONDUIT     40.75     0  02:26      1.48    0.01    0.25
  YS02001793JiankangQianchi CONDUIT    620.78     0  03:04     16.40    0.05    0.56
  YS02001757CaochengTiaoxuchi CONDUIT   1089.95     0  03:01      1.64    0.48    1.00
  WSF200WS02003060     CONDUIT    545.40     0  02:35      1.65    0.12    0.33
  1                    CONDUIT    855.66     0  02:38      3.19    0.30    0.37
  2                    CONDUIT    142.30     0  03:11      5.34    0.34    0.40
  3                    CONDUIT    513.78     0  03:11      9.83    0.82    0.69
  4                    CONDUIT      0.00     0  00:00      0.00    0.00    0.00
  CC-Pump-1            PUMP       200.00     0  02:01              1.00
  CC-Pump-2            PUMP       200.00     0  03:10              1.00
  JK-Pump-1            PUMP       300.00     0  00:10              1.00
  JK-Pump-2            PUMP       300.00     0  02:16              1.00
  XR-Pump-1            PUMP        95.00     0  00:10              1.00
  XR-Pump-2            PUMP        95.00     0  00:10              1.00
  XR-Pump-3            PUMP        95.00     0  00:50              1.00
  XR-Pump-4            PUMP        95.00     0  00:10              1.00
  
  
  ***************************
  Flow Classification Summary
  ***************************
  
  -------------------------------------------------------------------------------------
                      Adjusted    ---------- Fraction of Time in Flow Class ---------- 
                       /Actual         Up    Down  Sub   Sup   Up    Down  Norm  Inlet 
  Conduit               Length    Dry  Dry   Dry   Crit  Crit  Crit  Crit  Ltd   Ctrl  
  -------------------------------------------------------------------------------------
  WS02003066WSF200        1.00   0.05  0.00  0.00  0.00  0.95  0.00  0.00  0.66  0.00
  WS02006287WS02006284    1.00   0.03  0.01  0.00  0.59  0.37  0.00  0.00  0.78  0.00
  WS02006284WS02006280    1.00   0.04  0.00  0.00  0.00  0.00  0.00  0.96  0.00  0.00
  WS02006280WS02006229    1.00   0.04  0.00  0.00  0.00  0.00  0.00  0.96  0.00  0.00
  WS02006229WS02006228    1.00   0.00  0.00  0.00  1.00  0.00  0.00  0.00  0.00  0.00
  WS02006256WS02006235    1.00   0.00  0.00  0.00  1.00  0.00  0.00  0.00  0.00  0.00
  WS02006253WS02006251    1.00   0.03  0.01  0.00  0.96  0.00  0.00  0.00  0.00  0.00
  WS02006252WS02006251    1.00   0.07  0.00  0.00  0.00  0.00  0.93  0.00  0.00  0.00
  WS02006251WS02006249    1.00   0.00  0.00  0.00  1.00  0.00  0.00  0.00  0.24  0.00
  WS02006249WS02006248    1.00   0.00  0.01  0.00  0.92  0.00  0.07  0.00  0.00  0.00
  WS02006248WS02006247    1.00   0.01  0.00  0.00  0.98  0.00  0.00  0.01  0.13  0.00
  WS02006247WS02006245    1.00   0.01  0.00  0.00  0.99  0.00  0.00  0.00  0.00  0.00
  WS02006245WS02006243    1.00   0.01  0.00  0.00  0.96  0.00  0.00  0.03  0.01  0.00
  WS02006243WS02006242    1.00   0.00  0.00  0.00  0.99  0.00  0.00  0.00  0.20  0.00
  WS02006242WS02006240    1.00   0.00  0.00  0.00  1.00  0.00  0.00  0.00  0.00  0.00
  WS02006240WS02006239    1.00   0.00  0.00  0.00  0.97  0.00  0.00  0.03  0.01  0.00
  WS02006239WS02006238    1.00   0.00  0.00  0.00  1.00  0.00  0.00  0.00  0.00  0.00
  WS02006238WS02006235    1.00   0.00  0.00  0.00  1.00  0.00  0.00  0.00  0.00  0.00
  WS02006235WS02006234    1.00   0.00  0.00  0.00  0.97  0.00  0.03  0.00  0.00  0.00
  WS02006234WS02006232    1.00   0.00  0.00  0.00  1.00  0.00  0.00  0.00  0.00  0.00
  WS02006232WS02006231    1.00   0.00  0.00  0.00  1.00  0.00  0.00  0.00  0.00  0.00
  WS02006231WS02006230    1.00   0.00  0.00  0.00  0.48  0.00  0.52  0.00  0.00  0.00
  WS02006230WS02006229    1.00   0.00  0.00  0.00  0.99  0.00  0.00  0.01  0.01  0.00
  WS02006228WS02006109    1.00   0.00  0.00  0.00  1.00  0.00  0.00  0.00  0.00  0.00
  WS02006116WS02004401    1.00   0.02  0.00  0.00  0.98  0.00  0.00  0.00  0.00  0.00
  WS02006115WS02006116    1.00   0.02  0.00  0.00  0.98  0.00  0.00  0.00  0.00  0.00
  WS02006113WS02006111    1.00   0.01  0.00  0.00  0.00  0.99  0.00  0.00  0.12  0.00
  WS02006112WS02006115    1.00   0.01  0.01  0.00  0.98  0.00  0.00  0.00  0.00  0.00
  WS02006111WS02006112    1.00   0.01  0.00  0.00  0.98  0.00  0.00  0.00  0.97  0.00
  WS02006110WS02006113    1.00   0.00  0.01  0.00  0.99  0.00  0.00  0.00  0.00  0.00
  WS02006109WS02006110    1.00   0.00  0.00  0.00  0.99  0.00  0.01  0.00  0.00  0.00
  WS02004411WS02004412    1.00   0.03  0.00  0.00  0.97  0.00  0.00  0.00  0.00  0.00
  WS02004401WS02004402    1.00   0.02  0.00  0.00  0.98  0.00  0.00  0.00  0.00  0.00
  WS02004413WS02003067    1.00   0.03  0.01  0.00  0.00  0.00  0.96  0.00  0.00  0.00
  WS02004412WS02004413    1.00   0.03  0.00  0.00  0.97  0.00  0.00  0.00  0.02  0.00
  WS02004410WS02004411    1.00   0.03  0.00  0.00  0.97  0.00  0.00  0.00  0.02  0.00
  WS02004409WS02004410    1.00   0.03  0.00  0.00  0.97  0.00  0.00  0.00  0.03  0.00
  WS02004407WS02004409    1.00   0.03  0.00  0.00  0.97  0.00  0.00  0.00  0.92  0.00
  WS02004406WS02004407    1.00   0.00  0.03  0.00  0.97  0.00  0.00  0.00  0.00  0.00
  WS02004405WS02004406    1.00   0.00  0.00  0.00  1.00  0.00  0.00  0.00  0.01  0.00
  WS02004404WS02004405    1.00   0.00  0.00  0.00  1.00  0.00  0.00  0.00  0.00  0.00
  WS02004403WS02004404    1.00   0.00  0.02  0.00  0.98  0.00  0.00  0.00  0.00  0.00
  WS02004402WS02004403    1.00   0.02  0.00  0.00  0.98  0.00  0.00  0.00  0.00  0.00
  WS02004139WS02001211    1.00   0.00  0.00  0.00  1.00  0.00  0.00  0.00  0.00  0.00
  WS02004138WS02004139    1.00   0.00  0.00  0.00  0.99  0.01  0.00  0.00  0.99  0.00
  WS02003067WS02003066    1.00   0.04  0.00  0.00  0.95  0.00  0.00  0.00  0.00  0.00
  WS02001213WS02003059    1.00   0.00  0.00  0.00  1.00  0.00  0.00  0.00  0.00  0.00
  WS02001212WS02001213    1.00   0.00  0.00  0.00  0.91  0.00  0.09  0.00  0.00  0.00
  WS02001211WS02001212    1.00   0.00  0.00  0.00  1.00  0.00  0.00  0.00  0.00  0.00
  WS02003072WS02003073    1.00   0.00  0.00  0.00  0.00  0.00  0.00  1.00  0.00  0.00
  WS02003069WS02003072    1.00   0.00  0.00  0.00  1.00  0.00  0.00  0.00  0.23  0.00
  WS02003060WS02003069    1.00   0.00  0.00  0.00  0.99  0.01  0.00  0.00  0.03  0.00
  WS02003059WS02003060    1.00   0.00  0.00  0.00  1.00  0.00  0.00  0.00  0.01  0.00
  HS02004901HS02004770    1.00   0.04  0.00  0.00  0.96  0.00  0.00  0.00  0.00  0.00
  HS02004876HS02004881    1.00   0.01  0.00  0.00  0.99  0.00  0.00  0.00  0.00  0.00
  HS02004870HS02004876    1.00   0.00  0.00  0.00  0.99  0.01  0.00  0.00  0.95  0.00
  HS02004842HS02004848    1.00   0.00  0.04  0.00  0.96  0.00  0.00  0.00  0.62  0.00
  HS02004837HS02004842    1.00   0.00  0.00  0.00  1.00  0.00  0.00  0.00  0.11  0.00
  HS02004830HS02004837    1.00   0.00  0.00  0.00  1.00  0.00  0.00  0.00  0.99  0.00
  HS02004824HS02004830    1.00   0.00  0.00  0.00  1.00  0.00  0.00  0.00  0.00  0.00
  HS02004817HS02004824    1.00   0.00  0.00  0.00  1.00  0.00  0.00  0.00  1.00  0.00
  HS02004770HS02004777    1.00   0.00  0.04  0.00  0.96  0.00  0.00  0.00  0.03  0.00
  HS02004799HS02004480    1.00   0.00  0.02  0.00  0.96  0.00  0.02  0.00  0.00  0.00
  HS02004792HS02004799    1.00   0.00  0.00  0.00  1.00  0.00  0.00  0.00  0.98  0.00
  HS02004788HS02004792    1.00   0.00  0.00  0.00  1.00  0.00  0.00  0.00  0.98  0.00
  HS02004785HS02004788    1.00   0.00  0.00  0.00  1.00  0.00  0.00  0.00  0.00  0.00
  HS02004777HS02004785    1.00   0.00  0.00  0.00  1.00  0.00  0.00  0.00  0.13  0.00
  HS02004480HS02004478    1.00   0.04  0.00  0.00  0.63  0.00  0.00  0.33  0.00  0.00
  HS02004479HS02004480    1.00   0.02  0.00  0.00  0.98  0.00  0.00  0.00  0.11  0.00
  HS02004862HS02004870    1.00   0.00  0.00  0.00  1.00  0.00  0.00  0.00  0.05  0.00
  HS02004848HS02004852    1.00   0.04  0.00  0.00  0.96  0.00  0.00  0.00  0.70  0.00
  HS02004856HS02004862    1.00   0.00  0.05  0.00  0.95  0.00  0.00  0.00  0.81  0.00
  HS02004852HS02004856    1.00   0.04  0.00  0.00  0.96  0.00  0.00  0.00  0.86  0.00
  HS02004802HS02004478    1.00   0.04  0.00  0.00  0.96  0.00  0.00  0.00  0.03  0.00
  HS02004478WS02006287    1.00   0.04  0.00  0.00  0.73  0.23  0.00  0.00  0.78  0.00
  HS02004817HS02004807    1.00   0.00  0.04  0.00  0.96  0.00  0.00  0.00  0.01  0.00
  HS02004807HS02004802    1.00   0.04  0.00  0.00  0.96  0.00  0.00  0.00  0.00  0.00
  YS02001759YS02001757    1.00   0.00  0.00  0.00  1.00  0.00  0.00  0.00  0.15  0.00
  YS02001762YS02001759    1.00   0.00  0.00  0.00  1.00  0.00  0.00  0.00  0.03  0.00
  YS02001765YS02001762    1.00   0.00  0.00  0.00  1.00  0.00  0.00  0.00  0.14  0.00
  YS02001770YS02001767    1.00   0.00  0.00  0.00  1.00  0.00  0.00  0.00  0.00  0.00
  YS02001774YS02001770    1.00   0.00  0.04  0.00  0.96  0.00  0.00  0.00  0.03  0.00
  YS02001779YS02001774    1.00   0.00  0.00  0.00  1.00  0.00  0.00  0.00  0.20  0.00
  YS02001649YS02001757    1.00   0.00  0.00  0.00  1.00  0.00  0.00  0.00  0.16  0.00
  YS02001767YS02001765    1.00   0.00  0.00  0.00  1.00  0.00  0.00  0.00  0.01  0.00
  YS02006561YS02001783    1.00   0.05  0.00  0.00  0.00  0.95  0.00  0.00  0.61  0.00
  YS02001783YS02001784    1.00   0.00  0.05  0.00  0.95  0.00  0.00  0.00  0.01  0.00
  YS02001784YS02001785    1.00   0.00  0.00  0.00  1.00  0.00  0.00  0.00  0.19  0.00
  YS02001788YS02001790    1.00   0.00  0.00  0.00  0.05  0.95  0.00  0.00  0.61  0.00
  YS02001790YS02001791    1.00   0.00  0.00  0.00  0.00  1.00  0.00  0.00  0.72  0.00
  YS02001791YS02001793    1.00   0.00  0.00  0.00  0.00  1.00  0.00  0.00  0.00  0.00
  YS02001910YS02001907    1.00   0.00  0.00  0.00  0.98  0.00  0.00  0.02  0.12  0.00
  YS02001786YS02001788    1.00   0.00  0.00  0.00  0.06  0.94  0.00  0.00  0.00  0.00
  YS02001915YS02001910    1.00   0.00  0.00  0.00  0.98  0.02  0.00  0.00  0.18  0.00
  YS02001918YS02001915    1.00   0.00  0.00  0.00  0.98  0.02  0.00  0.00  0.69  0.00
  YS02001923YS02001920    1.00   0.00  0.00  0.00  1.00  0.00  0.00  0.00  1.00  0.00
  YS02001926YS02001923    1.00   0.00  0.03  0.00  0.00  0.00  0.97  0.00  0.00  0.00
  YS02001929YS02001926    1.00   0.00  0.04  0.00  0.96  0.00  0.00  0.00  0.87  0.00
  YS02001920YS02001918    1.00   0.00  0.00  0.00  1.00  0.00  0.00  0.00  0.00  0.00
  YS02001629YS02163301    1.00   0.04  0.00  0.00  0.95  0.00  0.00  0.00  0.00  0.00
  YS02001619YS02001622    1.00   0.04  0.00  0.00  0.96  0.00  0.00  0.00  0.00  0.00
  YS02001622YS02001625    1.00   0.04  0.00  0.00  0.96  0.00  0.00  0.00  0.07  0.00
  YS02001625YS02001629    1.00   0.04  0.01  0.00  0.93  0.00  0.02  0.00  0.00  0.00
  YS02163301YS02001633    1.00   0.00  0.04  0.00  0.96  0.00  0.00  0.00  0.00  0.00
  YS02163601YS02164001    1.00   0.00  0.03  0.00  0.97  0.00  0.00  0.00  0.00  0.00
  YS02164001YS02001641    1.00   0.00  0.03  0.00  0.97  0.00  0.00  0.00  0.06  0.00
  YS02001641YS02001644    1.00   0.00  0.00  0.00  1.00  0.00  0.00  0.00  0.00  0.00
  YS02001647YS02001649    1.00   0.00  0.05  0.00  0.95  0.00  0.00  0.00  0.01  0.00
  YS02006553YS02006556    1.00   0.00  0.00  0.00  1.00  0.00  0.00  0.00  0.03  0.00
  YS02006556YS02006558    1.00   0.00  0.00  0.00  1.00  0.00  0.00  0.00  0.00  0.00
  YSB6556YSB1171          1.00   0.02  0.01  0.00  0.96  0.00  0.00  0.00  0.00  0.00
  YS02001907YS02006553    1.00   0.00  0.01  0.00  0.99  0.00  0.00  0.00  0.00  0.00
  YS02006558YS02006561    1.00   0.05  0.00  0.00  0.00  0.95  0.00  0.00  0.61  0.00
  YS02001633YS02163601    1.00   0.00  0.00  0.00  1.00  0.00  0.00  0.00  0.15  0.00
  YS02001644YS02001647    1.00   0.00  0.05  0.00  0.95  0.00  0.00  0.00  0.00  0.00
  YS02001745YS02001748    1.00   0.00  0.00  0.00  0.87  0.01  0.00  0.12  0.06  0.00
  YS02001748YS02001751    1.00   0.00  0.00  0.00  0.97  0.03  0.00  0.00  0.15  0.00
  YS02001751YS02001754    1.00   0.00  0.00  0.00  0.94  0.00  0.00  0.06  0.02  0.00
  YS02001754YS02001757    1.00   0.00  0.00  0.00  1.00  0.00  0.00  0.00  0.20  0.00
  YS02001882YS02001884    1.00   0.04  0.00  0.00  0.96  0.00  0.00  0.00  0.00  0.00
  YS02001884YS02001887    1.00   0.03  0.01  0.00  0.96  0.00  0.00  0.00  0.00  0.00
  YS02001890YS02001895    1.00   0.00  0.04  0.00  0.96  0.00  0.00  0.00  0.00  0.00
  YS02001895YS02001898    1.00   0.04  0.00  0.00  0.95  0.00  0.01  0.00  0.00  0.00
  YS02001898YS02001901    1.00   0.05  0.00  0.00  0.95  0.00  0.00  0.00  0.03  0.00
  YS02001901YS02001904    1.00   0.05  0.00  0.00  0.95  0.00  0.00  0.00  0.00  0.00
  YS02001904YS02001907    1.00   0.00  0.05  0.00  0.95  0.00  0.00  0.00  0.00  0.00
  YS02001887YS02001890    1.00   0.00  0.00  0.00  0.98  0.00  0.02  0.00  0.00  0.00
  YS02001652YS02001649    1.00   0.00  0.00  0.00  1.00  0.00  0.00  0.00  0.18  0.00
  YS02001655YS02001652    1.00   0.00  0.00  0.00  0.94  0.00  0.00  0.05  0.02  0.00
  YS02001658YS02001655    1.00   0.00  0.04  0.00  0.93  0.03  0.00  0.00  0.12  0.00
  YS02001661YS02001658    1.00   0.04  0.00  0.00  0.86  0.10  0.00  0.00  0.15  0.00
  YS02001664YS02001661    1.00   0.04  0.00  0.00  0.83  0.13  0.00  0.00  0.30  0.00
  YSB1154YSB6556          1.00   0.04  0.00  0.00  0.96  0.00  0.00  0.00  0.02  0.00
  YSB1174YSB1171          1.00   0.03  0.01  0.00  0.97  0.00  0.00  0.00  0.00  0.00
  YSB1171HS02004479       1.00   0.02  0.00  0.00  0.97  0.00  0.00  0.00  0.10  0.00
  HS02004881HS02006253    1.00   0.03  0.00  0.00  0.90  0.00  0.00  0.07  0.72  0.00
  YS02001793JiankangQianchi    1.00   0.00  0.00  0.00  0.25  0.75  0.00  0.00  0.26  0.00
  YS02001757CaochengTiaoxuchi    1.00   0.00  0.07  0.00  0.93  0.00  0.00  0.00  0.00  0.00
  WSF200WS02003060        1.00   0.00  0.05  0.00  0.95  0.01  0.00  0.00  0.26  0.00
  1                       1.00   0.00  0.00  0.00  0.00  1.00  0.00  0.00  0.24  0.00
  2                       1.00   0.79  0.00  0.00  0.00  0.21  0.00  0.00  0.02  0.00
  3                       1.00   0.14  0.00  0.00  0.00  0.86  0.00  0.00  0.20  0.00
  4                       1.00   1.00  0.00  0.00  0.00  0.00  0.00  0.00  0.00  0.00
  
  
  *************************
  Conduit Surcharge Summary
  *************************
  
  ----------------------------------------------------------------------------
                                                           Hours        Hours 
                         --------- Hours Full --------   Above Full   Capacity
  Conduit                Both Ends  Upstream  Dnstream   Normal Flow   Limited
  ----------------------------------------------------------------------------
  WS02006229WS02006228        1.53      1.56      1.53      5.61         1.53
  WS02006256WS02006235        6.23      6.23      7.98      3.82         0.01
  WS02006252WS02006251        0.26      0.26      0.42      0.38         0.01
  WS02006251WS02006249        0.01      0.01      0.01      0.29         0.01
  WS02006249WS02006248        0.01      0.01      0.01      5.69         0.01
  WS02006247WS02006245        0.01      0.01      0.01      5.77         0.01
  WS02006243WS02006242        0.01      0.01      0.81      0.01         0.01
  WS02006242WS02006240        0.30      0.30      1.16      0.46         0.01
  WS02006240WS02006239        0.34      0.34      0.80      0.01         0.01
  WS02006239WS02006238        1.20      1.20      1.27      0.01         0.01
  WS02006238WS02006235        1.25      1.25      1.34      0.01         0.01
  WS02006235WS02006234        0.95      0.95      1.21      6.25         0.01
  WS02006234WS02006232        1.12      1.12      1.42      0.01         0.01
  WS02006232WS02006231        0.01      0.01      1.42      0.01         0.01
  WS02006231WS02006230        0.01      0.01      0.01      6.32         0.01
  WS02006230WS02006229        1.89      4.36      1.89      6.47         1.89
  WS02006228WS02006109        1.55      1.66      1.55      5.98         1.55
  WS02006112WS02006115        0.01      0.01      1.07      0.01         0.01
  WS02006111WS02006112        0.01      0.01      5.81      0.01         0.01
  WS02006110WS02006113        0.01      0.01      1.60      0.01         0.01
  WS02006109WS02006110        0.59      0.59      1.66      0.62         0.01
  WS02004405WS02004406        0.01      0.01      0.01      0.95         0.01
  WS02004404WS02004405        0.01      0.01      0.01      6.16         0.01
  WS02003072WS02003073        0.01      0.01      0.01      5.84         0.01
  YS02001759YS02001757        5.70      5.70      5.81      0.01         0.01
  YS02001762YS02001759        5.67      5.67      5.70      0.01         0.01
  YS02001765YS02001762        5.63      5.63      5.67      0.01         0.01
  YS02001770YS02001767        5.59      5.60      5.60      0.01         0.55
  YS02001774YS02001770        5.57      5.57      5.65      0.01         0.01
  YS02001779YS02001774        5.31      5.31      5.65      0.01         0.01
  YS02001649YS02001757        5.68      5.68      5.81      0.01         0.01
  YS02001767YS02001765        5.60      5.60      5.63      0.01         0.01
  YS02001784YS02001785        0.01      0.01      0.01      1.11         0.01
  YS02001910YS02001907        0.01      0.01      0.24      0.01         0.01
  YS02001786YS02001788        0.01      0.01      0.01      0.58         0.01
  YS02001629YS02163301        5.56      5.56      5.59      0.01         0.01
  YS02001619YS02001622        4.83      4.83      5.00      0.01         0.04
  YS02001622YS02001625        5.00      5.00      5.48      0.01         0.01
  YS02001625YS02001629        4.91      4.91      5.48      0.01         0.01
  YS02163301YS02001633        5.59      5.59      5.63      0.01         0.01
  YS02163601YS02164001        5.63      5.63      5.68      0.01         0.01
  YS02164001YS02001641        5.63      5.63      5.65      0.01         0.02
  YS02001641YS02001644        5.65      5.65      5.65      0.01         0.68
  YS02001647YS02001649        5.44      5.44      5.68      0.01         0.01
  YS02006553YS02006556        0.01      0.01      0.37      0.01         0.01
  YS02006556YS02006558        0.01      0.01      0.51      0.01         0.01
  YS02001907YS02006553        1.12      1.12      1.35      0.01         0.01
  YS02006558YS02006561        0.01      0.01      0.01      0.94         0.01
  YS02001633YS02163601        5.62      5.62      5.68      0.01         0.01
  YS02001644YS02001647        5.44      5.44      5.65      0.01         0.01
  YS02001745YS02001748        0.01      0.01      4.37      0.01         0.01
  YS02001748YS02001751        4.51      4.51      4.86      0.01         0.01
  YS02001751YS02001754        4.86      4.86      5.34      0.01         0.01
  YS02001754YS02001757        5.42      5.42      5.81      0.01         0.01
  YS02001904YS02001907        0.01      0.01      0.39      0.01         0.01
  YS02001652YS02001649        5.46      5.46      5.68      0.01         0.01
  YS02001655YS02001652        4.99      4.99      5.40      0.01         0.01
  YS02001658YS02001655        4.37      4.37      4.99      0.01         0.01
  YS02001661YS02001658        0.03      0.03      4.37      0.01         0.01
  YS02001664YS02001661        0.01      0.01      0.65      0.01         0.01
  YS02001793JiankangQianchi        0.01      0.01      1.57      0.01         0.01
  YS02001757CaochengTiaoxuchi        4.47      4.47      5.81      0.01         0.01
  
  
  ***************
  Pumping Summary
  ***************
  
  ---------------------------------------------------------------------------------------------------------
                                                  Min       Avg       Max     Total     Power    % Time Off
                        Percent   Number of      Flow      Flow      Flow    Volume     Usage    Pump Curve
  Pump                 Utilized   Start-Ups       LPS       LPS       LPS  10^6 ltr     Kw-hr    Low   High
  ---------------------------------------------------------------------------------------------------------
  CC-Pump-1               74.03           1      0.00    196.75    200.00     4.165      6.06    0.0   13.2
  CC-Pump-2                6.25           1      0.00    134.26    200.00     0.240      0.64    0.0    0.0
  JK-Pump-1               43.75           1      0.00    235.21    300.00     1.756     34.18    0.0    0.0
  JK-Pump-2               89.58           1      0.00    209.10    300.00     4.538     78.32    0.0    0.0
  XR-Pump-1               66.67           2      0.00     91.15     95.00     1.710     12.30    0.0    0.0
  XR-Pump-2               43.75           1      0.00     90.21     95.00     1.140     19.57    0.0    0.0
  XR-Pump-3               89.58           1      0.00     94.10     95.00     2.394     25.95    0.0    0.0
  XR-Pump-4               97.92           1      0.00     93.97     95.00     2.622     28.91    0.0    0.0
  

  Analysis begun on:  Wed Dec 15 10:50:56 2021
  Analysis ended on:  Wed Dec 15 10:51:00 2021
  Total elapsed time: 00:00:04