
  EPA STORM WATER MANAGEMENT MODEL - VERSION 5.1 (Build 5.3.0.dev0)
  --------------------------------------------------------------

  WARNING 04: minimum elevation drop used for Conduit WS02004404WS02004405
  WARNING 03: negative offset ignored for Link YS02001904YS02001907
  
  *********************************************************
  NOTE: The summary statistics displayed in this report are
  based on results found at every computational time step,  
  not just on results from each reporting time step.
  *********************************************************
  
  ****************
  Analysis Options
  ****************
  Flow Units ............... LPS
  Process Models:
    Rainfall/Runoff ........ YES
    RDII ................... NO
    Snowmelt ............... NO
    Groundwater ............ NO
    Flow Routing ........... YES
    Ponding Allowed ........ NO
    Water Quality .......... NO
  Infiltration Method ...... HORTON
  Flow Routing Method ...... DYNWAVE
  Surcharge Method ......... EXTRAN
  Starting Date ............ 08/28/2015 08:00:00
  Ending Date .............. 08/28/2015 15:50:00
  Antecedent Dry Days ...... 8.0
  Report Time Step ......... 00:01:00
  Wet Time Step ............ 00:01:00
  Dry Time Step ............ 00:01:00
  Routing Time Step ........ 5.00 sec
  Variable Time Step ....... YES
  Maximum Trials ........... 8
  Number of Threads ........ 4
  Head Tolerance ........... 0.001500 m
  
  
  **************************        Volume         Depth
  Runoff Quantity Continuity     hectare-m            mm
  **************************     ---------       -------
  Total Precipitation ......         5.151        11.277
  Evaporation Loss .........         0.000         0.000
  Infiltration Loss ........         1.323         2.897
  Surface Runoff ...........         2.817         6.167
  Final Storage ............         1.011         2.215
  Continuity Error (%) .....        -0.015
  
  
  **************************        Volume        Volume
  Flow Routing Continuity        hectare-m      10^6 ltr
  **************************     ---------     ---------
  Dry Weather Inflow .......         0.616         6.165
  Wet Weather Inflow .......         2.816        28.157
  Groundwater Inflow .......         0.000         0.000
  RDII Inflow ..............         0.000         0.000
  External Inflow ..........         0.102         1.024
  External Outflow .........         1.808        18.081
  Flooding Loss ............         1.228        12.277
  Evaporation Loss .........         0.000         0.000
  Exfiltration Loss ........         0.000         0.000
  Initial Stored Volume ....         0.076         0.761
  Final Stored Volume ......         0.619         6.190
  Continuity Error (%) .....        -1.226
  
  
  *************************
  Highest Continuity Errors
  *************************
  Node HS02004842 (17.03%)
  Node YS02001884 (10.74%)
  Node JK-storage (-5.04%)
  Node YSB1171 (3.39%)
  Node YS02001774 (3.27%)
  
  
  ***************************
  Time-Step Critical Elements
  ***************************
  Link WS02006252WS02006251 (49.21%)
  Link 3 (42.34%)
  Link WS02006238WS02006235 (3.28%)
  
  
  ********************************
  Highest Flow Instability Indexes
  ********************************
  Link WS02006113WS02006111 (43)
  Link YS02001629YS02163301 (37)
  Link YS02163301YS02001633 (36)
  Link YS02001619YS02001622 (36)
  Link YS02163601YS02164001 (36)
  
  
  *************************
  Routing Time Step Summary
  *************************
  Minimum Time Step           :     0.50 sec
  Average Time Step           :     0.79 sec
  Maximum Time Step           :     5.00 sec
  Percent in Steady State     :    -0.00
  Average Iterations per Step :     4.63
  Percent Not Converging      :    22.70
  
  
  ***************************
  Subcatchment Runoff Summary
  ***************************
  
  ------------------------------------------------------------------------------------------------------------------------------
                            Total      Total      Total      Total     Imperv       Perv      Total       Total     Peak  Runoff
                           Precip      Runon       Evap      Infil     Runoff     Runoff     Runoff      Runoff   Runoff   Coeff
  Subcatchment                 mm         mm         mm         mm         mm         mm         mm    10^6 ltr      LPS
  ------------------------------------------------------------------------------------------------------------------------------
  sub0                      11.28       0.00       0.00       0.79       9.22       0.00       9.22        0.01     1.44   0.818
  sub1                      11.28       0.00       0.00       1.24       8.78       0.00       8.78        0.06    10.11   0.778
  sub2                      11.28       0.00       0.00       4.17       6.20       0.00       6.20        0.06     9.79   0.549
  sub3                      11.28       0.00       0.00       4.17       6.16       0.00       6.16        0.14    22.44   0.546
  sub4                      11.28       0.00       0.00       1.24       8.63       0.00       8.63        0.18    27.35   0.765
  sub5                      11.28       0.00       0.00       0.79       9.17       0.00       9.17        0.10    18.00   0.813
  sub7                      11.28       0.00       0.00       1.01       9.01       0.00       9.01        0.03     5.34   0.799
  sub8                      11.28       0.00       0.00       1.01       9.00       0.00       9.00        0.06    10.08   0.798
  sub9                      11.28       0.00       0.00       1.01       8.99       0.00       8.99        0.04     7.58   0.798
  sub10                     11.28       0.00       0.00       0.90       9.08       0.00       9.08        0.10    17.43   0.805
  sub11                     11.28       0.00       0.00       0.90       9.10       0.00       9.10        0.11    18.56   0.807
  sub12                     11.28       0.00       0.00       1.47       8.62       0.00       8.62        0.08    13.79   0.765
  sub14                     11.28       0.00       0.00       1.01       8.99       0.00       8.99        0.09    14.98   0.797
  sub15                     11.28       0.00       0.00       3.38       6.91       0.00       6.91        0.12    20.76   0.613
  sub16                     11.28       0.00       0.00       3.72       6.64       0.00       6.64        0.07    12.34   0.589
  sub17                     11.28       0.00       0.00       3.61       6.73       0.00       6.73        0.06    10.18   0.597
  sub22                     11.28       0.00       0.00       4.85       5.64       0.00       5.64        0.36    62.58   0.500
  sub23                     11.28       0.00       0.00       4.17       6.23       0.00       6.23        0.30    52.29   0.553
  sub60                     11.28       0.00       0.00       1.35       7.08       0.00       7.08        2.14   214.31   0.627
  sub61                     11.28       0.00       0.00       1.92       7.22       0.00       7.22        2.23   246.69   0.640
  sub62                     11.28       0.00       0.00       0.90       7.84       0.00       7.84        2.41   259.66   0.695
  sub63                     11.28       0.00       0.00       3.27       6.33       0.00       6.33        1.92   219.77   0.561
  sub64                     11.28       0.00       0.00       1.69       6.79       0.00       6.79        2.06   204.52   0.602
  sub65                     11.28       0.00       0.00       1.47       6.90       0.00       6.90        2.12   208.50   0.612
  sub66                     11.28       0.00       0.00       3.27       5.83       0.00       5.83        1.79   183.42   0.517
  sub67                     11.28       0.00       0.00       0.90       8.30       0.00       8.30        2.56   301.39   0.736
  sub68                     11.28       0.00       0.00       1.58       7.60       0.00       7.60        2.34   264.96   0.674
  sub69                     11.28       0.00       0.00       1.69       7.90       0.00       7.90        1.85   237.25   0.701
  sub70                     11.28       8.07       0.00       6.54      10.49       0.03      10.52        2.41   252.63   0.544
  sub71                     11.28       0.00       0.00       0.90       7.63       0.00       7.63        1.80   186.96   0.676
  sub72                     11.28       0.00       0.00       0.79       6.02       0.00       6.02        1.23   100.40   0.534
  sub73                     11.28      10.24       0.00       7.30      11.40       0.02      11.42        2.68   238.40   0.531
  sub74                     11.28       0.00       0.00       8.46       2.36       0.00       2.36        0.94   126.51   0.209
  
  
  ******************
  Node Depth Summary
  ******************
  
  ---------------------------------------------------------------------------------
                                 Average  Maximum  Maximum  Time of Max    Reported
                                   Depth    Depth      HGL   Occurrence   Max Depth
  Node                 Type       Meters   Meters   Meters  days hr:min      Meters
  ---------------------------------------------------------------------------------
  WS02001211           JUNCTION     0.65     0.78     5.62     0  02:20        0.78
  WS02001212           JUNCTION     0.37     0.50     5.56     0  02:21        0.50
  WS02001213           JUNCTION     0.61     0.75     5.51     0  02:21        0.75
  WS02003069           JUNCTION     0.44     0.57     5.16     0  02:22        0.57
  WS02003072           JUNCTION     0.50     0.63     5.00     0  02:23        0.63
  WS02003073           JUNCTION     0.30     0.39     4.45     0  02:24        0.39
  WS02003060           JUNCTION     0.39     0.51     5.44     0  02:22        0.51
  WS02003066           JUNCTION     0.23     0.31     5.86     0  02:05        0.31
  WS02003059           JUNCTION     0.67     0.80     5.49     0  02:21        0.80
  WS02003067           JUNCTION     0.58     0.72     6.04     0  02:05        0.72
  WS02004401           JUNCTION     0.68     0.91     6.91     0  01:59        0.91
  WS02004402           JUNCTION     0.71     0.94     6.90     0  01:59        0.93
  WS02004403           JUNCTION     0.73     0.95     6.88     0  01:59        0.95
  WS02004404           JUNCTION     0.80     1.17     7.02     0  01:59        1.04
  WS02004406           JUNCTION     0.81     0.99     6.82     0  02:01        0.99
  WS02004409           JUNCTION     0.50     0.71     6.48     0  02:04        0.71
  WS02004410           JUNCTION     0.52     0.72     6.44     0  02:04        0.72
  WS02004411           JUNCTION     0.53     0.72     6.40     0  02:04        0.72
  WS02004412           JUNCTION     0.55     0.73     6.37     0  02:05        0.73
  WS02004413           JUNCTION     0.70     0.88     6.35     0  02:05        0.88
  WS02004405           JUNCTION     0.80     1.02     6.87     0  02:01        1.00
  WS02006109           JUNCTION     0.77     1.01     7.63     0  02:02        1.01
  WS02006110           JUNCTION     0.76     0.95     7.54     0  02:03        0.95
  WS02006111           JUNCTION     0.22     0.30     7.01     0  02:02        0.30
  WS02006112           JUNCTION     0.85     1.18     7.06     0  01:59        1.13
  WS02006113           JUNCTION     0.35     0.47     7.37     0  02:02        0.47
  WS02006115           JUNCTION     0.57     0.82     6.96     0  01:59        0.82
  WS02006116           JUNCTION     0.65     0.90     6.94     0  02:00        0.90
  WS02006230           JUNCTION     0.73     1.06     7.81     0  02:02        1.06
  WS02006231           JUNCTION     0.49     0.72     7.85     0  02:02        0.72
  WS02006232           JUNCTION     0.62     0.84     7.88     0  02:02        0.84
  WS02006234           JUNCTION     0.53     0.77     7.93     0  02:50        0.77
  WS02006235           JUNCTION     0.56     0.80     7.97     0  02:50        0.80
  WS02006238           JUNCTION     0.59     0.83     7.97     0  02:50        0.83
  WS02006240           JUNCTION     0.48     0.75     8.04     0  02:50        0.75
  WS02006242           JUNCTION     0.53     0.82     8.09     0  02:50        0.82
  WS02006243           JUNCTION     0.40     0.71     8.13     0  02:50        0.71
  WS02006245           JUNCTION     0.38     0.68     8.16     0  02:50        0.68
  WS02006247           JUNCTION     0.40     0.68     8.18     0  02:50        0.68
  WS02006248           JUNCTION     0.34     0.62     8.21     0  02:50        0.62
  WS02006249           JUNCTION     0.38     0.63     8.23     0  02:50        0.63
  WS02006239           JUNCTION     0.54     0.80     8.01     0  02:50        0.80
  WS02006251           JUNCTION     0.37     0.66     8.33     0  02:50        0.66
  WS02006252           JUNCTION     0.32     0.59     8.84     0  07:09        0.59
  WS02006253           JUNCTION     0.39     0.69     8.33     0  02:50        0.69
  WS02006256           JUNCTION     1.03     1.20     8.14     0  02:30        1.20
  WS02004138           JUNCTION     0.14     0.19     7.44     0  04:40        0.19
  WS02004407           JUNCTION     0.23     0.31     6.63     0  02:03        0.31
  WS02006228           JUNCTION     0.77     1.07     7.72     0  02:03        1.06
  WS02006229           JUNCTION     0.74     1.07     7.76     0  02:02        1.07
  WS02006280           JUNCTION     0.07     0.16     8.44     0  02:09        0.16
  WS02006284           JUNCTION     0.37     0.51     8.91     0  02:09        0.51
  WS02006287           JUNCTION     0.10     0.24     9.20     0  02:09        0.24
  WSF200               JUNCTION     0.22     0.33     5.56     0  02:12        0.33
  HS02004901           JUNCTION     0.13     0.25    10.07     0  02:07        0.25
  HS02004881           JUNCTION     0.01     0.03     9.06     0  02:08        0.03
  HS02004876           JUNCTION     0.05     0.11     9.14     0  02:05        0.11
  HS02004870           JUNCTION     0.02     0.05     9.34     0  02:09        0.05
  HS02004862           JUNCTION     0.02     0.06     9.44     0  02:09        0.06
  HS02004856           JUNCTION     0.08     0.11     9.54     0  02:09        0.11
  HS02004852           JUNCTION     0.01     0.04     9.55     0  02:09        0.04
  HS02004848           JUNCTION     0.01     0.04     9.64     0  02:09        0.04
  HS02004842           JUNCTION     0.34     0.37     9.64     0  02:09        0.37
  HS02004837           JUNCTION     0.03     0.06     9.64     0  02:09        0.06
  HS02004830           JUNCTION     0.04     0.07     9.54     0  02:09        0.07
  HS02004824           JUNCTION     0.02     0.05     9.45     0  02:10        0.05
  HS02004817           JUNCTION     0.45     0.56     9.40     0  02:09        0.56
  HS02004807           JUNCTION     0.13     0.23     9.40     0  02:09        0.23
  HS02004802           JUNCTION     0.17     0.26     9.39     0  02:09        0.26
  HS02004799           JUNCTION     0.12     0.28     9.49     0  02:07        0.28
  HS02004792           JUNCTION     0.03     0.11     9.63     0  02:07        0.11
  HS02004788           JUNCTION     0.03     0.08     9.98     0  02:08        0.08
  HS02004785           JUNCTION     0.05     0.15    10.05     0  02:08        0.15
  HS02004777           JUNCTION     0.15     0.27    10.06     0  02:07        0.27
  HS02004770           JUNCTION     0.12     0.24    10.07     0  02:07        0.24
  HS02004480           JUNCTION     0.08     0.22     9.46     0  02:07        0.22
  HS02004479           JUNCTION     0.12     0.26     9.46     0  02:08        0.26
  HS02004478           JUNCTION     0.06     0.15     9.38     0  02:08        0.15
  YS02001745           JUNCTION     0.70     0.87     8.39     0  03:23        0.87
  YS02001748           JUNCTION     1.10     2.15     9.22     0  02:26        1.32
  YS02001751           JUNCTION     1.28     1.98     8.86     0  02:26        1.53
  YS02001754           JUNCTION     1.54     2.00     8.61     0  02:26        1.80
  YS02001762           JUNCTION     1.74     2.03     8.43     0  02:58        2.02
  YS02001765           JUNCTION     1.69     1.97     8.42     0  02:58        1.96
  YS02001767           JUNCTION     1.66     1.93     8.42     0  03:18        1.91
  YS02001770           JUNCTION     1.65     1.91     8.40     0  03:31        1.89
  YS02001774           JUNCTION     1.72     1.97     8.39     0  03:10        1.96
  YS02001779           JUNCTION     1.47     1.68     8.37     0  02:24        1.68
  YS02001882           JUNCTION     0.46     1.19     7.90     0  02:57        1.18
  YS02001884           JUNCTION     0.56     1.29     7.90     0  02:57        1.28
  YS02001759           JUNCTION     1.78     2.07     8.43     0  02:57        2.06
  YS02001887           JUNCTION     0.64     1.37     7.91     0  02:57        1.36
  YS02001890           JUNCTION     0.67     1.40     7.90     0  02:57        1.38
  YS02001898           JUNCTION     0.43     1.15     7.89     0  02:57        1.15
  YS02001901           JUNCTION     0.55     1.28     7.89     0  02:57        1.27
  YS02001904           JUNCTION     0.53     1.25     7.88     0  02:57        1.24
  YS02001907           JUNCTION     0.86     1.59     7.88     0  02:58        1.58
  YS02001910           JUNCTION     0.65     1.38     7.88     0  02:58        1.37
  YS02001915           JUNCTION     0.45     1.16     7.88     0  02:58        1.16
  YS02001918           JUNCTION     0.20     0.82     7.88     0  02:58        0.81
  YS02001619           JUNCTION     1.25     1.61     8.54     0  02:19        1.46
  YS02001629           JUNCTION     1.61     1.85     8.40     0  02:22        1.84
  YS02001641           JUNCTION     1.71     1.95     8.39     0  02:28        1.93
  YS02001644           JUNCTION     1.71     1.92     8.35     0  02:28        1.92
  YS02001652           JUNCTION     1.55     2.16     8.76     0  02:53        1.97
  YS02001655           JUNCTION     1.31     2.20     9.05     0  02:20        1.86
  YS02001920           JUNCTION     0.30     0.88     7.89     0  02:58        0.88
  YS02001923           JUNCTION     0.15     0.63     7.89     0  02:58        0.62
  YS02001926           JUNCTION     0.21     0.44     7.88     0  02:58        0.44
  YS02001929           JUNCTION     0.10     0.17     7.87     0  02:57        0.17
  YS02001658           JUNCTION     1.04     2.30     9.44     0  02:21        1.68
  YS02001661           JUNCTION     0.81     2.46     9.86     0  02:53        1.52
  YS02001664           JUNCTION     0.35     0.57     8.50     0  02:41        0.56
  YS02001622           JUNCTION     1.27     1.62     8.52     0  02:19        1.49
  YS02001633           JUNCTION     1.70     1.97     8.43     0  02:27        1.94
  YS02001649           JUNCTION     1.75     2.05     8.44     0  02:37        2.05
  YS02001757           JUNCTION     1.88     2.17     8.43     0  03:11        2.16
  YS02001895           JUNCTION     0.42     1.15     7.89     0  02:57        1.14
  YS02001625           JUNCTION     1.56     1.78     8.38     0  02:21        1.78
  YS02163301           JUNCTION     1.64     1.91     8.43     0  02:26        1.87
  YS02163601           JUNCTION     1.75     2.02     8.42     0  02:28        1.98
  YS02164001           JUNCTION     1.69     1.96     8.42     0  02:28        1.91
  YS02001647           JUNCTION     1.54     1.80     8.41     0  02:21        1.80
  YSB1154              JUNCTION     0.26     0.41     9.47     0  02:08        0.41
  YSB6556              JUNCTION     0.16     0.30     9.47     0  02:07        0.30
  YSB1174              JUNCTION     0.21     0.36     9.47     0  02:07        0.36
  YSB1171              JUNCTION     0.42     0.56     9.47     0  02:08        0.56
  YS02006553           JUNCTION     0.87     1.58     7.87     0  02:58        1.57
  YS02006561           JUNCTION     0.26     0.80     7.46     0  02:58        0.80
  YS02006556           JUNCTION     0.83     1.53     7.85     0  02:56        1.53
  YS02006558           JUNCTION     0.88     1.57     7.84     0  02:58        1.56
  YS02001783           JUNCTION     0.50     1.79     7.93     0  02:15        1.22
  YS02001784           JUNCTION     0.53     1.63     7.70     0  02:15        1.20
  YS02001786           JUNCTION     0.49     1.58     7.61     0  02:15        1.09
  YS02001788           JUNCTION     0.45     1.60     7.58     0  02:15        1.00
  YS02001790           JUNCTION     0.60     1.96     7.60     0  02:14        1.20
  YS02001791           JUNCTION     0.61     1.60     7.07     0  02:14        1.24
  YS02001793           JUNCTION     0.89     2.41     7.24     0  02:13        1.80
  WS02004139           JUNCTION     0.59     0.73     5.64     0  02:20        0.73
  WSC                  OUTFALL      0.30     0.39     1.06     0  02:24        0.39
  3                    OUTFALL      0.08     0.20     6.20     0  02:30        0.20
  4                    OUTFALL      0.01     0.13     7.13     0  02:50        0.13
  5                    OUTFALL      0.00     0.00     5.00     0  00:00        0.00
  JK-storage           STORAGE      3.53     5.80     6.60     0  02:15        5.80
  CC-storage           STORAGE      1.11     1.38     8.38     0  03:24        1.38
  XR-storage           STORAGE      7.22     7.72     5.72     0  02:23        7.72
  
  
  *******************
  Node Inflow Summary
  *******************
  
  -------------------------------------------------------------------------------------------------
                                  Maximum  Maximum                  Lateral       Total        Flow
                                  Lateral    Total  Time of Max      Inflow      Inflow     Balance
                                   Inflow   Inflow   Occurrence      Volume      Volume       Error
  Node                 Type           LPS      LPS  days hr:min    10^6 ltr    10^6 ltr     Percent
  -------------------------------------------------------------------------------------------------
  WS02001211           JUNCTION      7.35   381.79     0  02:20       0.207        6.57       0.336
  WS02001212           JUNCTION      0.00   378.29     0  02:21           0        6.55       0.228
  WS02001213           JUNCTION      0.00   377.22     0  02:21           0        6.53       0.253
  WS02003069           JUNCTION      0.32   910.59     0  02:22     0.00902        14.8       0.163
  WS02003072           JUNCTION      0.00   910.21     0  02:23           0        14.8       0.210
  WS02003073           JUNCTION      1.82   911.74     0  02:23      0.0514        14.8       0.230
  WS02003060           JUNCTION     16.53   910.41     0  02:22       0.466        14.8       0.156
  WS02003066           JUNCTION      0.00   593.68     0  02:05           0        7.89       0.058
  WS02003059           JUNCTION      0.00   377.38     0  02:21           0        6.52       0.458
  WS02003067           JUNCTION      0.00   593.61     0  02:05           0         7.9       0.121
  WS02004401           JUNCTION      0.00   601.94     0  02:03           0        8.14       0.271
  WS02004402           JUNCTION      0.00   607.26     0  02:00           0        8.11       0.255
  WS02004403           JUNCTION      0.00   605.14     0  02:02           0        8.09       0.232
  WS02004404           JUNCTION      0.16   618.29     0  01:59     0.00457        8.08       0.177
  WS02004406           JUNCTION      0.00   612.05     0  02:01           0        8.05       0.420
  WS02004409           JUNCTION      0.00   597.01     0  02:03           0           8       0.211
  WS02004410           JUNCTION      0.00   595.50     0  02:04           0        7.99       0.239
  WS02004411           JUNCTION      0.00   595.00     0  02:04           0        7.97       0.245
  WS02004412           JUNCTION      0.00   594.12     0  02:04           0        7.95       0.263
  WS02004413           JUNCTION      0.00   593.99     0  02:05           0        7.93       0.392
  WS02004405           JUNCTION      0.04   615.74     0  01:59     0.00107        8.07       0.257
  WS02006109           JUNCTION      1.23   578.68     0  02:03      0.0347         8.2       0.258
  WS02006110           JUNCTION      0.00   578.68     0  02:03           0        8.18       0.260
  WS02006111           JUNCTION      0.00   604.29     0  02:02           0        8.15       0.056
  WS02006112           JUNCTION     10.18   596.44     0  02:02      0.0578        8.21       0.337
  WS02006113           JUNCTION      0.00   579.75     0  02:03           0        8.16       0.123
  WS02006115           JUNCTION      0.00   604.92     0  02:04           0        8.18       0.286
  WS02006116           JUNCTION      0.00   599.64     0  02:03           0        8.15       0.226
  WS02006230           JUNCTION     10.28   395.56     0  06:12        0.29        6.46       0.168
  WS02006231           JUNCTION      0.00   387.06     0  06:12           0        6.18       0.205
  WS02006232           JUNCTION      0.00   387.14     0  06:12           0        6.19       0.261
  WS02006234           JUNCTION      0.00   388.36     0  06:12           0         6.2       0.156
  WS02006235           JUNCTION      0.00   389.07     0  06:11           0        6.24       0.149
  WS02006238           JUNCTION      0.00   311.31     0  07:12           0        4.07       0.198
  WS02006240           JUNCTION      0.00   322.08     0  02:41           0        4.07       0.295
  WS02006242           JUNCTION      0.00   327.44     0  02:41           0        4.07       0.358
  WS02006243           JUNCTION      0.00   333.14     0  02:41           0        4.06      -0.071
  WS02006245           JUNCTION      0.00   334.74     0  02:41           0        4.07       0.267
  WS02006247           JUNCTION      0.00   340.15     0  02:40           0        4.08       0.171
  WS02006248           JUNCTION      0.00   349.35     0  02:40           0        4.08       0.062
  WS02006249           JUNCTION      0.00   441.81     0  02:44           0        4.34       0.291
  WS02006239           JUNCTION      0.00   312.15     0  02:40           0        4.07       0.298
  WS02006251           JUNCTION      0.08   442.59     0  02:42     0.00217        4.37       0.197
  WS02006252           JUNCTION      0.00   400.00     0  02:40           0        4.02       0.011
  WS02006253           JUNCTION      1.44    57.92     0  02:08     0.00747       0.355       1.119
  WS02006256           JUNCTION      0.00   599.90     0  03:50           0        5.25       0.050
  WS02004138           JUNCTION      0.00   379.99     0  04:40           0        6.38       0.059
  WS02004407           JUNCTION      0.00   597.38     0  02:03           0        8.01       0.095
  WS02006228           JUNCTION      0.00   577.44     0  02:03           0        8.19       0.190
  WS02006229           JUNCTION      0.00   576.96     0  02:02           0         8.2       0.125
  WS02006280           JUNCTION      0.00   274.19     0  02:09           0        1.75       0.004
  WS02006284           JUNCTION      0.10   274.19     0  02:09      0.0027        1.75       0.059
  WS02006287           JUNCTION      0.00   274.08     0  02:09           0        1.75       0.040
  WSF200               JUNCTION      0.00   593.69     0  02:05           0        7.88       0.058
  HS02004901           JUNCTION     12.34    12.34     0  01:36      0.0695      0.0697       2.591
  HS02004881           JUNCTION      5.34    56.62     0  02:08      0.0303       0.326       0.081
  HS02004876           JUNCTION     10.11    51.23     0  02:08      0.0584       0.296       0.183
  HS02004870           JUNCTION     10.08    41.18     0  02:08      0.0575       0.238       0.046
  HS02004862           JUNCTION      9.99    31.21     0  02:08      0.0634        0.18       0.096
  HS02004856           JUNCTION      7.58    21.25     0  02:08      0.0433       0.118       1.232
  HS02004852           JUNCTION      0.00    13.78     0  02:09           0      0.0753       0.071
  HS02004848           JUNCTION     22.44    22.44     0  02:09       0.139       0.139       0.034
  HS02004842           JUNCTION      0.00     8.71     0  02:17           0      0.0763      20.532
  HS02004837           JUNCTION     23.78    32.32     0  02:08       0.279       0.343       0.238
  HS02004830           JUNCTION      0.15    32.46     0  02:09     0.00423       0.333       0.372
  HS02004824           JUNCTION     27.40    59.85     0  02:10       0.181       0.513       0.106
  HS02004817           JUNCTION      0.60    60.44     0  02:10      0.0169       0.529       3.251
  HS02004807           JUNCTION     18.56    78.63     0  02:09       0.106       0.618       0.705
  HS02004802           JUNCTION      0.00    78.69     0  02:10           0       0.615       0.646
  HS02004799           JUNCTION     14.98   164.66     0  02:07      0.0856       0.976       0.271
  HS02004792           JUNCTION     62.86   149.73     0  02:07       0.364       0.891       0.047
  HS02004788           JUNCTION     22.43    86.95     0  02:07       0.166       0.528       0.074
  HS02004785           JUNCTION      0.15    64.59     0  02:07     0.00423       0.363       0.134
  HS02004777           JUNCTION      0.03    64.48     0  02:07    0.000846       0.364       1.445
  HS02004770           JUNCTION     52.29    64.50     0  02:06       0.297       0.365       0.857
  HS02004480           JUNCTION      0.00   195.78     0  02:07           0        1.15       0.099
  HS02004479           JUNCTION      0.00    31.20     0  02:09           0       0.188       0.389
  HS02004478           JUNCTION      0.00   274.07     0  02:08           0        1.75       0.021
  YS02001745           JUNCTION    214.32   387.89     0  02:24        2.14        2.16       0.469
  YS02001748           JUNCTION      0.04   559.47     0  02:25     0.00127        2.16       1.050
  YS02001751           JUNCTION      0.01   362.84     0  02:13     0.00031        2.11       1.126
  YS02001754           JUNCTION      0.26   230.27     0  02:24     0.00733         2.1       1.194
  YS02001762           JUNCTION      0.00   258.09     0  02:40           0        1.67       1.272
  YS02001765           JUNCTION      0.00   257.16     0  02:40           0        1.67       1.470
  YS02001767           JUNCTION      0.54   256.64     0  02:40      0.0151        1.69       2.156
  YS02001770           JUNCTION    259.81   259.81     0  02:54        2.41        2.44       1.318
  YS02001774           JUNCTION      0.00   222.04     0  03:29           0       0.766       3.383
  YS02001779           JUNCTION      0.01   222.46     0  03:29    0.000141       0.736       2.122
  YS02001882           JUNCTION      0.00    20.00     0  02:17           0      0.0169      14.183
  YS02001884           JUNCTION      0.00    42.54     0  02:17           0      0.0535      12.033
  YS02001759           JUNCTION    246.73   500.57     0  02:41        2.23        3.84       0.596
  YS02001887           JUNCTION    301.84   312.91     0  02:18        2.57         2.6       0.313
  YS02001890           JUNCTION      0.00   302.36     0  02:42           0        2.56       0.346
  YS02001898           JUNCTION      0.00   302.55     0  02:50           0        2.54       0.108
  YS02001901           JUNCTION      0.00   304.56     0  02:50           0        2.54       0.258
  YS02001904           JUNCTION      0.00   304.62     0  02:50           0        2.54       0.236
  YS02001907           JUNCTION      0.00   589.30     0  03:02           0        5.63       0.414
  YS02001910           JUNCTION      0.00   322.02     0  03:06           0         3.1       0.366
  YS02001915           JUNCTION    186.98   321.13     0  03:06         1.8         3.1       0.182
  YS02001918           JUNCTION      0.00   154.57     0  03:06           0         1.3       0.134
  YS02001619           JUNCTION    183.42   183.42     0  02:55        1.79        1.79       0.681
  YS02001629           JUNCTION      0.00   181.84     0  02:14           0        1.66       1.726
  YS02001641           JUNCTION      0.00   376.37     0  02:23           0        3.69       0.570
  YS02001644           JUNCTION    204.56   885.45     0  03:08        2.06        7.82       0.334
  YS02001652           JUNCTION      0.00   280.94     0  02:41           0        1.87       1.234
  YS02001655           JUNCTION      0.15   422.70     0  02:09     0.00434         1.9       1.330
  YS02001920           JUNCTION      2.87   144.72     0  03:04      0.0809        1.31       0.212
  YS02001923           JUNCTION      0.04   113.17     0  03:02     0.00106        1.23       0.049
  YS02001926           JUNCTION      0.05   104.55     0  03:00     0.00147        1.23       0.253
  YS02001929           JUNCTION    100.40   100.40     0  03:01        1.23        1.23       0.040
  YS02001658           JUNCTION      0.00   629.12     0  02:20           0        1.93       1.127
  YS02001661           JUNCTION      0.00   620.57     0  02:37           0         2.7      -0.148
  YS02001664           JUNCTION    219.77   374.19     0  02:37        1.91        2.68       0.211
  YS02001622           JUNCTION      0.00   183.63     0  02:54           0        1.78       1.812
  YS02001633           JUNCTION    208.70   375.86     0  02:23        2.13        3.74       0.858
  YS02001649           JUNCTION      0.00   778.85     0  02:35           0        5.14       0.718
  YS02001757           JUNCTION      0.00  1445.99     0  02:35           0        8.87       1.050
  YS02001895           JUNCTION      0.00   303.45     0  02:38           0        2.55       0.188
  YS02001625           JUNCTION      0.00   183.50     0  02:54           0        1.74       2.274
  YS02163301           JUNCTION      0.00   200.59     0  02:21           0        1.65       1.472
  YS02163601           JUNCTION      0.11   376.39     0  02:23      0.0031         3.7       0.817
  YS02164001           JUNCTION      0.00   376.37     0  02:23           0        3.68       0.540
  YS02001647           JUNCTION      0.00   560.62     0  02:36           0        4.17       0.685
  YSB1154              JUNCTION     18.00    18.00     0  02:07       0.104       0.105       1.401
  YSB6556              JUNCTION      0.00    17.98     0  02:06           0       0.105       1.197
  YSB1174              JUNCTION     13.79    13.79     0  01:35      0.0753      0.0759       1.723
  YSB1171              JUNCTION      0.00    31.24     0  02:07           0       0.187       3.507
  YS02006553           JUNCTION      0.00   589.41     0  03:03           0        5.62       0.266
  YS02006561           JUNCTION      0.00   843.34     0  02:58           0        7.92       0.007
  YS02006556           JUNCTION      0.00   589.20     0  03:02           0        5.62       0.197
  YS02006558           JUNCTION    265.84   843.58     0  02:58        2.36        7.95       0.066
  YS02001783           JUNCTION      0.00   841.17     0  02:58           0        7.92       0.026
  YS02001784           JUNCTION      1.06   842.19     0  02:59      0.0299        7.95       0.046
  YS02001786           JUNCTION      0.06   842.26     0  02:58     0.00159        7.95       0.038
  YS02001788           JUNCTION      0.07   842.33     0  02:59       0.002        7.95       0.025
  YS02001790           JUNCTION      0.15   842.44     0  02:58     0.00437        7.95       0.027
  YS02001791           JUNCTION      0.00   842.50     0  02:58           0        7.95       0.015
  YS02001793           JUNCTION      0.00   842.64     0  02:59           0        7.95      -0.000
  WS02004139           JUNCTION      0.32   379.53     0  04:40     0.00905        6.39       0.412
  WSC                  OUTFALL       0.00   911.27     0  02:24           0        14.8       0.000
  3                    OUTFALL       0.00   487.06     0  02:30           0        3.05       0.000
  4                    OUTFALL       0.00   158.85     0  02:50           0       0.249       0.000
  5                    OUTFALL       0.00     0.00     0  00:00           0           0       0.000 ltr
  JK-storage           STORAGE       0.00   897.59     0  02:12           0         8.1      -4.795
  CC-storage           STORAGE       0.00  1446.17     0  02:35           0        7.52       0.823
  XR-storage           STORAGE     549.18   549.18     0  02:55        9.26        9.86      -0.000
  
  
  **********************
  Node Surcharge Summary
  **********************
  
  Surcharging occurs when water rises above the top of the highest conduit.
  ---------------------------------------------------------------------
                                               Max. Height   Min. Depth
                                   Hours       Above Crown    Below Rim
  Node                 Type      Surcharged         Meters       Meters
  ---------------------------------------------------------------------
  WS02004404           JUNCTION        0.09          0.171        2.609
  WS02004405           JUNCTION        0.01          0.020        2.780
  WS02006109           JUNCTION        1.88          0.193        1.627
  WS02006110           JUNCTION        0.71          0.041        1.809
  WS02006112           JUNCTION        1.33          0.177        1.503
  WS02006231           JUNCTION        0.09          0.012        1.518
  WS02006232           JUNCTION        1.76          0.142        1.338
  WS02006234           JUNCTION        0.53          0.049        1.191
  WS02006235           JUNCTION        0.86          0.092        1.198
  WS02006238           JUNCTION        1.19          0.109        1.321
  WS02006240           JUNCTION        0.34          0.040        1.350
  WS02006242           JUNCTION        0.71          0.086        0.734
  WS02006239           JUNCTION        0.55          0.060        1.230
  WS02006252           JUNCTION        1.31          0.193        0.907
  WS02006228           JUNCTION        1.79          0.237        1.963
  YS02001748           JUNCTION        5.30          1.068        0.122
  YS02001751           JUNCTION        5.52          0.977        0.223
  YS02001754           JUNCTION        5.74          0.948        0.202
  YS02001762           JUNCTION        5.96          1.026        0.124
  YS02001765           JUNCTION        5.94          0.974        0.126
  YS02001767           JUNCTION        5.92          0.930        0.100
  YS02001770           JUNCTION        5.91          0.878        0.042
  YS02001774           JUNCTION        5.95          0.971        0.079
  YS02001779           JUNCTION        5.74          0.680        0.000
  YS02001882           JUNCTION        0.48          0.186        0.644
  YS02001884           JUNCTION        0.55          0.225        0.645
  YS02001759           JUNCTION        5.98          1.070        0.140
  YS02001887           JUNCTION        0.71          0.319        0.631
  YS02001890           JUNCTION        0.76          0.347        0.413
  YS02001898           JUNCTION        0.37          0.121        0.619
  YS02001901           JUNCTION        0.65          0.279        0.591
  YS02001904           JUNCTION        0.61          0.247        0.603
  YS02001907           JUNCTION        1.45          0.579        0.371
  YS02001910           JUNCTION        0.82          0.377        0.723
  YS02001915           JUNCTION        0.45          0.163        0.837
  YS02001619           JUNCTION        5.52          0.610        0.000
  YS02001629           JUNCTION        5.55          0.470        0.000
  YS02001641           JUNCTION        5.95          0.954        0.146
  YS02001644           JUNCTION        5.95          0.920        0.000
  YS02001652           JUNCTION        5.75          1.130        0.000
  YS02001655           JUNCTION        5.56          1.200        0.000
  YS02001658           JUNCTION        5.34          1.300        0.000
  YS02001661           JUNCTION        0.22          1.390        0.000
  YS02001622           JUNCTION        5.59          0.620        0.000
  YS02001633           JUNCTION        5.93          0.952        0.108
  YS02001649           JUNCTION        5.96          1.050        0.000
  YS02001757           JUNCTION        6.04          1.168        0.042
  YS02001895           JUNCTION        0.41          0.145        0.605
  YS02001625           JUNCTION        5.79          0.780        0.000
  YS02163301           JUNCTION        5.92          0.909        0.121
  YS02163601           JUNCTION        5.97          1.025        0.055
  YS02164001           JUNCTION        5.94          0.958        0.142
  YS02001647           JUNCTION        5.76          0.805        0.095
  YS02006553           JUNCTION        1.55          0.583        0.607
  YS02006556           JUNCTION        1.11          0.495        0.855
  YS02006558           JUNCTION        1.06          0.472        0.928
  YS02001783           JUNCTION        1.23          0.985        0.615
  YS02001784           JUNCTION        1.29          0.830        0.660
  YS02001786           JUNCTION        1.22          0.784        0.646
  YS02001788           JUNCTION        1.22          0.801        0.679
  YS02001790           JUNCTION        2.92          1.157        0.000
  YS02001791           JUNCTION        3.07          0.795        1.125
  YS02001793           JUNCTION        3.24          1.409        1.191
  
  
  *********************
  Node Flooding Summary
  *********************
  
  Flooding refers to all water that overflows a node, whether it ponds or not.
  --------------------------------------------------------------------------
                                                             Total   Maximum
                                 Maximum   Time of Max       Flood    Ponded
                        Hours       Rate    Occurrence      Volume     Depth
  Node                 Flooded       LPS   days hr:min    10^6 ltr    Meters
  --------------------------------------------------------------------------
  YS02001779              2.47    222.19      0  03:29       0.716     0.000
  YS02001619              0.01     34.35      0  02:23       0.000     0.000
  YS02001629              0.01     33.55      0  02:24       0.000     0.000
  YS02001644              4.00    885.26      0  03:08       5.704     0.000
  YS02001652              0.01      7.71      0  02:56       0.000     0.000
  YS02001655              0.01     46.71      0  02:21       0.000     0.000
  YS02001658              0.01    345.56      0  02:21       0.000     0.000
  YS02001661              0.01    139.00      0  02:56       0.000     0.000
  YS02001622              0.01     41.02      0  02:20       0.000     0.000
  YS02001649              0.07     38.63      0  02:48       0.003     0.000
  YS02001625              0.62     36.18      0  02:25       0.048     0.000
  YS02001790              0.01    150.65      0  02:14       0.000     0.000
  JK-storage              2.55    841.56      0  03:00       3.252     0.000
  XR-storage              4.57    387.24      0  03:20       2.553     0.000
  
  
  **********************
  Storage Volume Summary
  **********************
  
  --------------------------------------------------------------------------------------------------
                         Average     Avg  Evap Exfil       Maximum     Max    Time of Max    Maximum
                          Volume    Pcnt  Pcnt  Pcnt        Volume    Pcnt     Occurrence    Outflow
  Storage Unit           1000 m3    Full  Loss  Loss       1000 m3    Full    days hr:min        LPS
  --------------------------------------------------------------------------------------------------
  JK-storage               0.177      61     0     0         0.291     100       0  02:15     599.90
  CC-storage               3.084      20     0     0         3.849      25       0  03:24     400.00
  XR-storage               0.866      93     0     0         0.926     100       0  02:23     379.99
  
  
  ***********************
  Outfall Loading Summary
  ***********************
  
  -----------------------------------------------------------
                         Flow       Avg       Max       Total
                         Freq      Flow      Flow      Volume
  Outfall Node           Pcnt       LPS       LPS    10^6 ltr
  -----------------------------------------------------------
  WSC                  100.00    579.82    911.27      14.780
  3                     83.74    160.23    487.06       3.052
  4                     22.76     46.28    158.85       0.249
  5                      0.00      0.00      0.00       0.000
  -----------------------------------------------------------
  System                51.63    786.33   1326.92      18.081
  
  
  ********************
  Link Flow Summary
  ********************
  
  -----------------------------------------------------------------------------
                                 Maximum  Time of Max   Maximum    Max/    Max/
                                  |Flow|   Occurrence   |Veloc|    Full    Full
  Link                 Type          LPS  days hr:min     m/sec    Flow   Depth
  -----------------------------------------------------------------------------
  WS02003066WSF200     CONDUIT    593.69     0  02:05      2.86    0.10    0.24
  WS02006287WS02006284 CONDUIT    274.09     0  02:09      1.78    0.13    0.25
  WS02006284WS02006280 CONDUIT    274.19     0  02:09      2.02    0.11    0.23
  WS02006280WS02006229 CONDUIT    274.19     0  02:09      3.26    0.06    0.16
  WS02006229WS02006228 CONDUIT    577.44     0  02:03      1.15    1.91    1.00
  WS02006256WS02006235 CONDUIT    149.97     0  01:15      2.14    1.59    1.00
  WS02006253WS02006251 CONDUIT     67.82     0  02:06      0.52    0.20    0.96
  WS02006252WS02006251 CONDUIT    400.60     0  02:41      3.19    1.47    1.00
  WS02006251WS02006249 CONDUIT    441.81     0  02:44      1.22    1.27    0.92
  WS02006249WS02006248 CONDUIT    349.35     0  02:40      1.11    1.91    0.88
  WS02006248WS02006247 CONDUIT    340.15     0  02:40      1.05    0.74    0.92
  WS02006247WS02006245 CONDUIT    334.74     0  02:41      0.99    2.65    0.96
  WS02006245WS02006243 CONDUIT    333.14     0  02:41      1.02    0.99    0.98
  WS02006243WS02006242 CONDUIT    327.44     0  02:41      0.88    0.70    1.00
  WS02006242WS02006240 CONDUIT    322.08     0  02:41      0.85    1.28    1.00
  WS02006240WS02006239 CONDUIT    312.15     0  02:40      0.87    0.98    1.00
  WS02006239WS02006238 CONDUIT    311.31     0  07:12      0.84    1.00    1.00
  WS02006238WS02006235 CONDUIT    311.47     0  07:12      0.85    0.70    1.00
  WS02006235WS02006234 CONDUIT    388.36     0  06:12      1.02    4.10    1.00
  WS02006234WS02006232 CONDUIT    387.14     0  06:12      1.01    0.78    1.00
  WS02006232WS02006231 CONDUIT    387.06     0  06:12      1.06    0.81    1.00
  WS02006231WS02006230 CONDUIT    385.28     0  06:12      1.33    5.84    0.99
  WS02006230WS02006229 CONDUIT    395.05     0  06:13      1.03    8.79    1.00
  WS02006228WS02006109 CONDUIT    577.45     0  02:03      1.15    2.52    1.00
  WS02006116WS02004401 CONDUIT    601.94     0  02:03      0.82    0.83    0.90
  WS02006115WS02006116 CONDUIT    599.64     0  02:03      1.01    0.77    0.83
  WS02006113WS02006111 CONDUIT    604.29     0  02:02      2.53    0.72    0.48
  WS02006112WS02006115 CONDUIT    604.92     0  02:04      0.82    0.36    0.90
  WS02006111WS02006112 CONDUIT    586.32     0  02:02      1.61    0.28    0.68
  WS02006110WS02006113 CONDUIT    579.75     0  02:03      1.35    0.53    0.80
  WS02006109WS02006110 CONDUIT    578.68     0  02:03      1.15    1.11    1.00
  WS02004411WS02004412 CONDUIT    594.12     0  02:04      0.97    0.84    0.73
  WS02004401WS02004402 CONDUIT    607.26     0  02:00      0.81    0.73    0.92
  WS02004413WS02003067 CONDUIT    593.61     0  02:05      1.17    0.25    0.61
  WS02004412WS02004413 CONDUIT    593.99     0  02:05      0.92    0.40    0.81
  WS02004410WS02004411 CONDUIT    595.00     0  02:04      0.98    0.81    0.72
  WS02004409WS02004410 CONDUIT    595.50     0  02:04      1.00    0.77    0.71
  WS02004407WS02004409 CONDUIT    597.01     0  02:03      1.50    0.21    0.51
  WS02004406WS02004407 CONDUIT    597.38     0  02:03      1.11    0.27    0.65
  WS02004405WS02004406 CONDUIT    612.05     0  02:01      0.78    1.21    0.99
  WS02004404WS02004405 CONDUIT    615.70     0  01:59      0.78    6.03    1.00
  WS02004403WS02004404 CONDUIT    618.12     0  01:59      0.80    0.45    0.98
  WS02004402WS02004403 CONDUIT    605.14     0  02:02      0.80    0.87    0.94
  WS02004139WS02001211 CONDUIT    374.44     0  02:20      0.81    0.47    0.59
  WS02004138WS02004139 CONDUIT    379.21     0  04:40      3.34    0.08    0.43
  WS02003067WS02003066 CONDUIT    593.68     0  02:05      1.28    0.19    0.43
  WS02001213WS02003059 CONDUIT    377.38     0  02:21      0.78    0.62    0.77
  WS02001212WS02001213 CONDUIT    377.22     0  02:21      1.28    0.58    0.46
  WS02001211WS02001212 CONDUIT    378.29     0  02:21      0.75    0.29    0.64
  WS02003072WS02003073 CONDUIT    909.92     0  02:23      1.71    1.97    0.48
  WS02003069WS02003072 CONDUIT    910.21     0  02:23      1.61    0.44    0.50
  WS02003060WS02003069 CONDUIT    910.27     0  02:22      1.85    0.36    0.45
  WS02003059WS02003060 CONDUIT    377.57     0  02:22      0.83    0.25    0.65
  HS02004901HS02004770 CONDUIT     12.22     0  02:07      0.05    0.05    0.35
  HS02004876HS02004881 CONDUIT     51.32     0  02:08      0.76    0.55    0.10
  HS02004870HS02004876 CONDUIT     41.17     0  02:09      0.52    0.03    0.11
  HS02004842HS02004848 CONDUIT      8.71     0  02:17      0.04    0.01    0.29
  HS02004837HS02004842 CONDUIT      8.85     0  02:14      0.42    0.01    0.30
  HS02004830HS02004837 CONDUIT     32.31     0  02:09      0.50    0.03    0.09
  HS02004824HS02004830 CONDUIT     32.45     0  02:09      0.53    0.04    0.09
  HS02004817HS02004824 CONDUIT     59.84     0  02:10      0.20    0.03    0.43
  HS02004770HS02004777 CONDUIT     64.45     0  02:07      0.26    0.12    0.36
  HS02004799HS02004480 CONDUIT    164.63     0  02:07      0.67    0.21    0.35
  HS02004792HS02004799 CONDUIT    149.69     0  02:07      0.76    0.09    0.28
  HS02004788HS02004792 CONDUIT     86.94     0  02:08      0.90    0.06    0.14
  HS02004785HS02004788 CONDUIT     64.57     0  02:08      0.57    0.49    0.16
  HS02004777HS02004785 CONDUIT     64.44     0  02:07      0.31    0.08    0.29
  HS02004480HS02004478 CONDUIT    195.75     0  02:08      1.06    0.82    0.26
  HS02004479HS02004480 CONDUIT     31.31     0  02:10      0.28    0.03    0.34
  HS02004862HS02004870 CONDUIT     31.19     0  02:09      0.56    0.03    0.08
  HS02004848HS02004852 CONDUIT     13.78     0  02:09      0.38    0.02    0.05
  HS02004856HS02004862 CONDUIT     21.24     0  02:09      0.41    0.02    0.07
  HS02004852HS02004856 CONDUIT     13.76     0  02:09      0.18    0.02    0.11
  HS02004802HS02004478 CONDUIT     78.89     0  02:11      0.38    0.07    0.29
  HS02004478WS02006287 CONDUIT    274.08     0  02:09      1.48    0.08    0.21
  HS02004817HS02004807 CONDUIT     60.62     0  02:11      0.15    0.04    0.56
  HS02004807HS02004802 CONDUIT     78.69     0  02:10      0.32    0.15    0.35
  YS02001759YS02001757 CONDUIT    500.81     0  02:41      0.64    0.36    1.00
  YS02001762YS02001759 CONDUIT    258.23     0  02:40      0.33    0.30    1.00
  YS02001765YS02001762 CONDUIT    258.09     0  02:40      0.33    0.24    1.00
  YS02001770YS02001767 CONDUIT    256.10     0  02:40      0.38    1.01    1.00
  YS02001774YS02001770 CONDUIT    222.04     0  03:29      0.28    0.14    1.00
  YS02001779YS02001774 CONDUIT    222.46     0  03:29      0.28    0.11    1.00
  YS02001649YS02001757 CONDUIT    779.10     0  02:35      0.99    0.47    1.00
  YS02001767YS02001765 CONDUIT    257.16     0  02:40      0.35    0.32    1.00
  YS02006561YS02001783 CONDUIT    841.17     0  02:58      2.14    0.44    1.00
  YS02001783YS02001784 CONDUIT    841.13     0  02:59      1.67    1.16    1.00
  YS02001784YS02001785 CONDUIT    842.20     0  02:58      1.73    1.96    1.00
  YS02001788YS02001790 CONDUIT    842.29     0  02:58      2.26    0.62    1.00
  YS02001790YS02001791 CONDUIT    842.50     0  02:58      2.76    0.92    1.00
  YS02001791YS02001793 CONDUIT    842.64     0  02:59      5.54    0.36    1.00
  YS02001910YS02001907 CONDUIT    322.03     0  03:06      0.49    0.18    1.00
  YS02001786YS02001788 CONDUIT    842.26     0  02:59      2.18    1.62    1.00
  YS02001915YS02001910 CONDUIT    322.02     0  03:06      0.56    0.16    1.00
  YS02001918YS02001915 CONDUIT    149.83     0  03:06      0.44    0.08    0.91
  YS02001923YS02001920 CONDUIT    141.85     0  03:04      0.66    0.06    0.75
  YS02001926YS02001923 CONDUIT    113.13     0  03:02      0.76    0.16    0.43
  YS02001929YS02001926 CONDUIT    104.50     0  03:00      0.81    0.05    0.31
  YS02001920YS02001918 CONDUIT    154.57     0  03:06      0.65    0.15    0.85
  YS02001629YS02163301 CONDUIT    200.59     0  02:21      0.26    0.25    1.00
  YS02001619YS02001622 CONDUIT    183.63     0  02:54      0.67    0.27    1.00
  YS02001622YS02001625 CONDUIT    183.50     0  02:54      0.32    0.10    1.00
  YS02001625YS02001629 CONDUIT    181.84     0  02:14      0.27    0.09    1.00
  YS02163301YS02001633 CONDUIT    200.77     0  02:23      0.26    0.19    1.00
  YS02163601YS02164001 CONDUIT    376.37     0  02:23      0.48    0.33    1.00
  YS02164001YS02001641 CONDUIT    376.37     0  02:23      0.48    0.51    1.00
  YS02001641YS02001644 CONDUIT    376.37     0  02:23      0.48    1.22    1.00
  YS02001647YS02001649 CONDUIT    560.98     0  02:35      0.71    0.30    1.00
  YS02006553YS02006556 CONDUIT    589.20     0  03:02      0.75    0.50    1.00
  YS02006556YS02006558 CONDUIT    589.29     0  03:02      0.75    0.47    1.00
  YSB6556YSB1171       CONDUIT     18.03     0  02:09      0.07    0.02    0.61
  YS02001907YS02006553 CONDUIT    589.41     0  03:03      0.65    0.69    1.00
  YS02006558YS02006561 CONDUIT    843.34     0  02:58      3.18    1.86    1.00
  YS02001633YS02163601 CONDUIT    376.28     0  02:23      0.48    0.40    1.00
  YS02001644YS02001647 CONDUIT    560.62     0  02:36      0.71    0.33    1.00
  YS02001745YS02001748 CONDUIT    559.42     0  02:25      1.53    0.22    0.93
  YS02001748YS02001751 CONDUIT    362.83     0  02:13      1.14    0.18    1.00
  YS02001751YS02001754 CONDUIT    230.01     0  02:24      0.97    0.11    1.00
  YS02001754YS02001757 CONDUIT    230.36     0  02:24      0.33    0.09    1.00
  YS02001882YS02001884 CONDUIT     22.83     0  02:18      0.12    0.03    1.00
  YS02001884YS02001887 CONDUIT     42.54     0  02:17      0.09    0.06    1.00
  YS02001890YS02001895 CONDUIT    303.45     0  02:38      0.47    0.14    1.00
  YS02001895YS02001898 CONDUIT    302.55     0  02:50      0.57    0.53    1.00
  YS02001898YS02001901 CONDUIT    304.56     0  02:50      0.49    0.20    1.00
  YS02001901YS02001904 CONDUIT    304.62     0  02:50      0.45    0.47    1.00
  YS02001904YS02001907 CONDUIT    305.17     0  02:50      0.39    0.11    1.00
  YS02001887YS02001890 CONDUIT    302.36     0  02:42      0.41    0.52    1.00
  YS02001652YS02001649 CONDUIT    282.13     0  02:41      0.58    0.14    1.00
  YS02001655YS02001652 CONDUIT    280.94     0  02:41      1.05    0.14    1.00
  YS02001658YS02001655 CONDUIT    422.54     0  02:09      1.31    0.18    1.00
  YS02001661YS02001658 CONDUIT    629.12     0  02:20      1.61    0.25    1.00
  YS02001664YS02001661 CONDUIT    620.57     0  02:37      1.52    0.19    0.71
  YSB1154YSB6556       CONDUIT     17.98     0  02:06      0.16    0.03    0.50
  YSB1174YSB1171       CONDUIT     13.76     0  01:36      0.06    0.02    0.62
  YSB1171HS02004479    CONDUIT     31.20     0  02:09      0.54    0.02    0.48
  HS02004881HS02006253 CONDUIT     56.61     0  02:08      1.92    0.01    0.27
  YS02001793JiankangQianchi CONDUIT    897.59     0  02:12     13.02    0.07    1.00
  YS02001757CaochengTiaoxuchi CONDUIT   1446.17     0  02:35      2.25    0.64    1.00
  WSF200WS02003060     CONDUIT    592.87     0  02:06      1.97    0.13    0.34
  1                    CONDUIT    911.27     0  02:24      3.24    0.32    0.39
  2                    CONDUIT    158.85     0  02:50      5.50    0.38    0.43
  3                    CONDUIT    487.06     0  02:30      9.76    0.78    0.67
  4                    CONDUIT      0.00     0  00:00      0.00    0.00    0.00
  CC-Pump-1            PUMP       200.00     0  01:50              1.00
  CC-Pump-2            PUMP       200.00     0  02:40              1.00
  JK-Pump-1            PUMP       300.00     0  01:20              1.00
  JK-Pump-2            PUMP       300.00     0  01:47              1.00
  XR-Pump-1            PUMP        95.00     0  00:00              1.00
  XR-Pump-2            PUMP        95.00     0  00:00              1.00
  XR-Pump-3            PUMP        95.00     0  00:00              1.00
  XR-Pump-4            PUMP        95.00     0  02:10              1.00
  
  
  ***************************
  Flow Classification Summary
  ***************************
  
  -------------------------------------------------------------------------------------
                      Adjusted    ---------- Fraction of Time in Flow Class ---------- 
                       /Actual         Up    Down  Sub   Sup   Up    Down  Norm  Inlet 
  Conduit               Length    Dry  Dry   Dry   Crit  Crit  Crit  Crit  Ltd   Ctrl  
  -------------------------------------------------------------------------------------
  WS02003066WSF200        1.00   0.06  0.00  0.00  0.00  0.94  0.00  0.00  0.59  0.00
  WS02006287WS02006284    1.00   0.02  0.01  0.00  0.61  0.36  0.00  0.00  0.68  0.00
  WS02006284WS02006280    1.00   0.02  0.00  0.00  0.00  0.00  0.00  0.98  0.00  0.00
  WS02006280WS02006229    1.00   0.02  0.00  0.00  0.00  0.00  0.00  0.98  0.00  0.00
  WS02006229WS02006228    1.00   0.00  0.00  0.00  1.00  0.00  0.00  0.00  0.00  0.00
  WS02006256WS02006235    1.00   0.02  0.00  0.00  0.98  0.00  0.00  0.00  0.00  0.00
  WS02006253WS02006251    1.00   0.01  0.01  0.00  0.98  0.00  0.00  0.00  0.00  0.00
  WS02006252WS02006251    1.00   0.06  0.00  0.00  0.00  0.00  0.94  0.00  0.00  0.00
  WS02006251WS02006249    1.00   0.00  0.00  0.00  1.00  0.00  0.00  0.00  0.21  0.00
  WS02006249WS02006248    1.00   0.00  0.00  0.00  0.89  0.00  0.11  0.00  0.00  0.00
  WS02006248WS02006247    1.00   0.00  0.00  0.00  0.99  0.00  0.00  0.01  0.10  0.00
  WS02006247WS02006245    1.00   0.00  0.00  0.00  0.98  0.00  0.00  0.02  0.00  0.00
  WS02006245WS02006243    1.00   0.01  0.00  0.00  0.97  0.00  0.00  0.03  0.01  0.00
  WS02006243WS02006242    1.00   0.01  0.00  0.00  0.97  0.00  0.00  0.02  0.03  0.00
  WS02006242WS02006240    1.00   0.01  0.02  0.00  0.97  0.00  0.00  0.00  0.00  0.00
  WS02006240WS02006239    1.00   0.02  0.00  0.00  0.98  0.00  0.00  0.00  0.00  0.00
  WS02006239WS02006238    1.00   0.02  0.00  0.00  0.98  0.00  0.00  0.00  0.00  0.00
  WS02006238WS02006235    1.00   0.02  0.00  0.00  0.98  0.00  0.00  0.00  0.00  0.00
  WS02006235WS02006234    1.00   0.02  0.00  0.00  0.97  0.00  0.00  0.00  0.00  0.00
  WS02006234WS02006232    1.00   0.02  0.00  0.00  0.98  0.00  0.00  0.00  0.00  0.00
  WS02006232WS02006231    1.00   0.02  0.00  0.00  0.97  0.00  0.00  0.00  0.00  0.00
  WS02006231WS02006230    1.00   0.02  0.00  0.00  0.45  0.00  0.52  0.00  0.00  0.00
  WS02006230WS02006229    1.00   0.00  0.00  0.00  0.99  0.00  0.00  0.01  0.00  0.00
  WS02006228WS02006109    1.00   0.00  0.00  0.00  1.00  0.00  0.00  0.00  0.00  0.00
  WS02006116WS02004401    1.00   0.02  0.00  0.00  0.98  0.00  0.00  0.00  0.00  0.00
  WS02006115WS02006116    1.00   0.02  0.00  0.00  0.95  0.00  0.00  0.03  0.00  0.00
  WS02006113WS02006111    1.00   0.01  0.00  0.00  0.00  0.99  0.00  0.00  0.13  0.00
  WS02006112WS02006115    1.00   0.01  0.01  0.00  0.98  0.00  0.00  0.00  0.00  0.00
  WS02006111WS02006112    1.00   0.01  0.00  0.00  0.99  0.00  0.00  0.00  0.92  0.00
  WS02006110WS02006113    1.00   0.00  0.01  0.00  0.99  0.00  0.00  0.00  0.00  0.00
  WS02006109WS02006110    1.00   0.00  0.00  0.00  1.00  0.00  0.00  0.00  0.00  0.00
  WS02004411WS02004412    1.00   0.05  0.00  0.00  0.95  0.00  0.00  0.00  0.00  0.00
  WS02004401WS02004402    1.00   0.02  0.00  0.00  0.98  0.00  0.00  0.00  0.04  0.00
  WS02004413WS02003067    1.00   0.05  0.01  0.00  0.00  0.00  0.94  0.00  0.00  0.00
  WS02004412WS02004413    1.00   0.05  0.00  0.00  0.95  0.00  0.00  0.00  0.00  0.00
  WS02004410WS02004411    1.00   0.05  0.00  0.00  0.95  0.00  0.00  0.00  0.00  0.00
  WS02004409WS02004410    1.00   0.05  0.00  0.00  0.95  0.00  0.00  0.00  0.00  0.00
  WS02004407WS02004409    1.00   0.05  0.00  0.00  0.95  0.00  0.00  0.00  0.80  0.00
  WS02004406WS02004407    1.00   0.00  0.05  0.00  0.95  0.00  0.00  0.00  0.00  0.00
  WS02004405WS02004406    1.00   0.00  0.00  0.00  1.00  0.00  0.00  0.00  0.04  0.00
  WS02004404WS02004405    1.00   0.00  0.00  0.00  1.00  0.00  0.00  0.00  0.00  0.00
  WS02004403WS02004404    1.00   0.00  0.02  0.00  0.98  0.00  0.00  0.00  0.04  0.00
  WS02004402WS02004403    1.00   0.02  0.00  0.00  0.98  0.00  0.00  0.00  0.00  0.00
  WS02004139WS02001211    1.00   0.00  0.00  0.00  1.00  0.00  0.00  0.00  0.00  0.00
  WS02004138WS02004139    1.00   0.00  0.00  0.00  1.00  0.00  0.00  0.00  1.00  0.00
  WS02003067WS02003066    1.00   0.06  0.00  0.00  0.94  0.00  0.00  0.00  0.00  0.00
  WS02001213WS02003059    1.00   0.00  0.00  0.00  1.00  0.00  0.00  0.00  0.00  0.00
  WS02001212WS02001213    1.00   0.00  0.00  0.00  0.87  0.00  0.13  0.00  0.00  0.00
  WS02001211WS02001212    1.00   0.00  0.00  0.00  1.00  0.00  0.00  0.00  0.00  0.00
  WS02003072WS02003073    1.00   0.00  0.00  0.00  0.00  0.00  0.00  1.00  0.00  0.00
  WS02003069WS02003072    1.00   0.00  0.00  0.00  1.00  0.00  0.00  0.00  0.19  0.00
  WS02003060WS02003069    1.00   0.00  0.00  0.00  0.99  0.01  0.00  0.00  0.07  0.00
  WS02003059WS02003060    1.00   0.00  0.00  0.00  1.00  0.00  0.00  0.00  0.01  0.00
  HS02004901HS02004770    1.00   0.02  0.00  0.00  0.98  0.00  0.00  0.00  0.00  0.00
  HS02004876HS02004881    1.00   0.00  0.00  0.00  1.00  0.00  0.00  0.00  0.00  0.00
  HS02004870HS02004876    1.00   0.00  0.00  0.00  1.00  0.00  0.00  0.00  0.95  0.00
  HS02004842HS02004848    1.00   0.00  0.02  0.00  0.98  0.00  0.00  0.00  0.58  0.00
  HS02004837HS02004842    1.00   0.00  0.00  0.00  1.00  0.00  0.00  0.00  0.11  0.00
  HS02004830HS02004837    1.00   0.00  0.00  0.00  1.00  0.00  0.00  0.00  0.99  0.00
  HS02004824HS02004830    1.00   0.00  0.00  0.00  1.00  0.00  0.00  0.00  0.00  0.00
  HS02004817HS02004824    1.00   0.00  0.00  0.00  1.00  0.00  0.00  0.00  1.00  0.00
  HS02004770HS02004777    1.00   0.00  0.02  0.00  0.98  0.00  0.00  0.00  0.03  0.00
  HS02004799HS02004480    1.00   0.00  0.01  0.00  0.97  0.00  0.02  0.00  0.00  0.00
  HS02004792HS02004799    1.00   0.00  0.00  0.00  1.00  0.00  0.00  0.00  0.98  0.00
  HS02004788HS02004792    1.00   0.00  0.00  0.00  1.00  0.00  0.00  0.00  0.98  0.00
  HS02004785HS02004788    1.00   0.00  0.00  0.00  1.00  0.00  0.00  0.00  0.00  0.00
  HS02004777HS02004785    1.00   0.00  0.00  0.00  1.00  0.00  0.00  0.00  0.12  0.00
  HS02004480HS02004478    1.00   0.02  0.00  0.00  0.66  0.00  0.00  0.32  0.00  0.00
  HS02004479HS02004480    1.00   0.01  0.00  0.00  0.99  0.00  0.00  0.00  0.12  0.00
  HS02004862HS02004870    1.00   0.00  0.00  0.00  1.00  0.00  0.00  0.00  0.04  0.00
  HS02004848HS02004852    1.00   0.02  0.00  0.00  0.98  0.00  0.00  0.00  0.76  0.00
  HS02004856HS02004862    1.00   0.00  0.04  0.00  0.96  0.00  0.00  0.00  0.83  0.00
  HS02004852HS02004856    1.00   0.02  0.00  0.00  0.98  0.00  0.00  0.00  0.86  0.00
  HS02004802HS02004478    1.00   0.02  0.00  0.00  0.98  0.00  0.00  0.00  0.03  0.00
  HS02004478WS02006287    1.00   0.03  0.00  0.00  0.74  0.23  0.00  0.00  0.65  0.00
  HS02004817HS02004807    1.00   0.00  0.02  0.00  0.98  0.00  0.00  0.00  0.01  0.00
  HS02004807HS02004802    1.00   0.02  0.00  0.00  0.98  0.00  0.00  0.00  0.00  0.00
  YS02001759YS02001757    1.00   0.00  0.00  0.00  1.00  0.00  0.00  0.00  0.16  0.00
  YS02001762YS02001759    1.00   0.00  0.00  0.00  1.00  0.00  0.00  0.00  0.03  0.00
  YS02001765YS02001762    1.00   0.00  0.00  0.00  1.00  0.00  0.00  0.00  0.14  0.00
  YS02001770YS02001767    1.00   0.00  0.00  0.00  1.00  0.00  0.00  0.00  0.00  0.00
  YS02001774YS02001770    1.00   0.00  0.02  0.00  0.98  0.00  0.00  0.00  0.03  0.00
  YS02001779YS02001774    1.00   0.00  0.00  0.00  1.00  0.00  0.00  0.00  0.18  0.00
  YS02001649YS02001757    1.00   0.00  0.00  0.00  1.00  0.00  0.00  0.00  0.16  0.00
  YS02001767YS02001765    1.00   0.00  0.00  0.00  1.00  0.00  0.00  0.00  0.00  0.00
  YS02006561YS02001783    1.00   0.05  0.00  0.00  0.43  0.53  0.00  0.00  0.57  0.00
  YS02001783YS02001784    1.00   0.00  0.05  0.00  0.95  0.00  0.00  0.00  0.00  0.00
  YS02001784YS02001785    1.00   0.00  0.00  0.00  1.00  0.00  0.00  0.00  0.17  0.00
  YS02001788YS02001790    1.00   0.00  0.00  0.00  0.52  0.48  0.00  0.00  0.51  0.00
  YS02001790YS02001791    1.00   0.00  0.00  0.00  0.49  0.51  0.00  0.00  0.37  0.00
  YS02001791YS02001793    1.00   0.00  0.00  0.00  0.52  0.48  0.00  0.00  0.03  0.00
  YS02001910YS02001907    1.00   0.00  0.00  0.00  1.00  0.00  0.00  0.00  0.12  0.00
  YS02001786YS02001788    1.00   0.00  0.00  0.00  0.49  0.51  0.00  0.00  0.00  0.00
  YS02001915YS02001910    1.00   0.00  0.00  0.00  0.99  0.01  0.00  0.00  0.16  0.00
  YS02001918YS02001915    1.00   0.00  0.00  0.00  1.00  0.00  0.00  0.00  0.59  0.00
  YS02001923YS02001920    1.00   0.00  0.00  0.00  1.00  0.00  0.00  0.00  0.87  0.00
  YS02001926YS02001923    1.00   0.00  0.01  0.00  0.10  0.00  0.89  0.00  0.00  0.00
  YS02001929YS02001926    1.00   0.00  0.02  0.00  0.98  0.00  0.00  0.00  0.85  0.00
  YS02001920YS02001918    1.00   0.00  0.00  0.00  1.00  0.00  0.00  0.00  0.00  0.00
  YS02001629YS02163301    1.00   0.02  0.01  0.00  0.97  0.00  0.00  0.00  0.00  0.00
  YS02001619YS02001622    1.00   0.02  0.00  0.00  0.98  0.00  0.00  0.00  0.00  0.00
  YS02001622YS02001625    1.00   0.02  0.00  0.00  0.98  0.00  0.00  0.00  0.04  0.00
  YS02001625YS02001629    1.00   0.02  0.03  0.00  0.94  0.00  0.01  0.00  0.00  0.00
  YS02163301YS02001633    1.00   0.00  0.02  0.00  0.98  0.00  0.00  0.00  0.00  0.00
  YS02163601YS02164001    1.00   0.00  0.01  0.00  0.99  0.00  0.00  0.00  0.00  0.00
  YS02164001YS02001641    1.00   0.00  0.01  0.00  0.99  0.00  0.00  0.00  0.06  0.00
  YS02001641YS02001644    1.00   0.00  0.00  0.00  1.00  0.00  0.00  0.00  0.00  0.00
  YS02001647YS02001649    1.00   0.00  0.04  0.00  0.96  0.00  0.00  0.00  0.01  0.00
  YS02006553YS02006556    1.00   0.00  0.00  0.00  1.00  0.00  0.00  0.00  0.03  0.00
  YS02006556YS02006558    1.00   0.00  0.00  0.00  1.00  0.00  0.00  0.00  0.00  0.00
  YSB6556YSB1171          1.00   0.01  0.01  0.00  0.98  0.00  0.00  0.00  0.00  0.00
  YS02001907YS02006553    1.00   0.00  0.00  0.00  1.00  0.00  0.00  0.00  0.00  0.00
  YS02006558YS02006561    1.00   0.05  0.00  0.00  0.15  0.80  0.00  0.00  0.51  0.00
  YS02001633YS02163601    1.00   0.00  0.00  0.00  1.00  0.00  0.00  0.00  0.15  0.00
  YS02001644YS02001647    1.00   0.00  0.04  0.00  0.96  0.00  0.00  0.00  0.00  0.00
  YS02001745YS02001748    1.00   0.00  0.00  0.00  0.91  0.01  0.00  0.08  0.04  0.00
  YS02001748YS02001751    1.00   0.00  0.00  0.00  0.96  0.04  0.00  0.00  0.14  0.00
  YS02001751YS02001754    1.00   0.00  0.00  0.00  0.95  0.00  0.00  0.05  0.02  0.00
  YS02001754YS02001757    1.00   0.00  0.00  0.00  1.00  0.00  0.00  0.00  0.18  0.00
  YS02001882YS02001884    1.00   0.02  0.00  0.00  0.97  0.00  0.00  0.00  0.00  0.00
  YS02001884YS02001887    1.00   0.01  0.01  0.00  0.98  0.00  0.00  0.00  0.00  0.00
  YS02001890YS02001895    1.00   0.00  0.03  0.00  0.97  0.00  0.00  0.00  0.00  0.00
  YS02001895YS02001898    1.00   0.03  0.00  0.00  0.95  0.00  0.02  0.00  0.00  0.00
  YS02001898YS02001901    1.00   0.03  0.00  0.00  0.97  0.00  0.00  0.00  0.01  0.00
  YS02001901YS02001904    1.00   0.03  0.00  0.00  0.97  0.00  0.00  0.00  0.00  0.00
  YS02001904YS02001907    1.00   0.00  0.03  0.00  0.97  0.00  0.00  0.00  0.00  0.00
  YS02001887YS02001890    1.00   0.00  0.00  0.00  1.00  0.00  0.00  0.00  0.00  0.00
  YS02001652YS02001649    1.00   0.00  0.00  0.00  1.00  0.00  0.00  0.00  0.16  0.00
  YS02001655YS02001652    1.00   0.00  0.00  0.00  0.95  0.00  0.00  0.05  0.02  0.00
  YS02001658YS02001655    1.00   0.00  0.02  0.00  0.94  0.04  0.00  0.00  0.03  0.00
  YS02001661YS02001658    1.00   0.02  0.00  0.00  0.91  0.07  0.00  0.00  0.03  0.00
  YS02001664YS02001661    1.00   0.02  0.00  0.00  0.90  0.08  0.00  0.00  0.19  0.00
  YSB1154YSB6556          1.00   0.02  0.00  0.00  0.98  0.00  0.00  0.00  0.02  0.00
  YSB1174YSB1171          1.00   0.01  0.01  0.00  0.98  0.00  0.00  0.00  0.00  0.00
  YSB1171HS02004479       1.00   0.01  0.00  0.00  0.99  0.00  0.00  0.00  0.10  0.00
  HS02004881HS02006253    1.00   0.01  0.00  0.00  0.63  0.05  0.00  0.31  0.56  0.00
  YS02001793JiankangQianchi    1.00   0.00  0.00  0.00  0.73  0.27  0.00  0.00  0.32  0.00
  YS02001757CaochengTiaoxuchi    1.00   0.00  0.06  0.00  0.93  0.01  0.00  0.00  0.00  0.00
  WSF200WS02003060        1.00   0.00  0.06  0.00  0.63  0.31  0.00  0.00  0.24  0.00
  1                       1.00   0.00  0.00  0.00  0.00  1.00  0.00  0.00  0.37  0.00
  2                       1.00   0.77  0.00  0.00  0.00  0.23  0.00  0.00  0.06  0.00
  3                       1.00   0.16  0.00  0.00  0.00  0.84  0.00  0.00  0.09  0.00
  4                       1.00   1.00  0.00  0.00  0.00  0.00  0.00  0.00  0.00  0.00
  
  
  *************************
  Conduit Surcharge Summary
  *************************
  
  ----------------------------------------------------------------------------
                                                           Hours        Hours 
                         --------- Hours Full --------   Above Full   Capacity
  Conduit                Both Ends  Upstream  Dnstream   Normal Flow   Limited
  ----------------------------------------------------------------------------
  WS02006229WS02006228        1.79      1.99      1.79      4.02         1.79
  WS02006256WS02006235        6.38      6.39      6.65      3.72         0.01
  WS02006252WS02006251        0.58      0.58      1.31      1.12         0.01
  WS02006251WS02006249        0.01      0.01      0.01      0.62         0.01
  WS02006249WS02006248        0.01      0.01      0.01      3.77         0.01
  WS02006247WS02006245        0.01      0.01      0.01      4.57         0.01
  WS02006243WS02006242        0.14      0.14      0.71      0.01         0.01
  WS02006242WS02006240        0.34      0.34      1.12      1.42         0.01
  WS02006240WS02006239        0.43      0.43      0.55      0.01         0.01
  WS02006239WS02006238        1.03      1.03      1.19      0.01         0.02
  WS02006238WS02006235        1.02      1.02      1.49      0.01         0.01
  WS02006235WS02006234        0.53      0.53      0.86      6.41         0.01
  WS02006234WS02006232        0.69      0.69      1.76      0.01         0.01
  WS02006232WS02006231        0.09      0.09      1.76      0.01         0.01
  WS02006231WS02006230        0.01      0.01      0.15      6.42         0.01
  WS02006230WS02006229        2.55      3.46      2.55      6.51         2.55
  WS02006228WS02006109        1.88      2.31      1.88      5.57         1.88
  WS02006112WS02006115        0.01      0.01      1.33      0.01         0.01
  WS02006111WS02006112        0.01      0.01      4.24      0.01         0.01
  WS02006110WS02006113        0.01      0.01      2.16      0.01         0.01
  WS02006109WS02006110        0.70      0.70      2.31      0.72         0.01
  WS02004405WS02004406        0.01      0.01      0.01      1.00         0.01
  WS02004404WS02004405        0.01      0.09      0.01      6.28         0.01
  WS02004403WS02004404        0.01      0.01      0.09      0.01         0.01
  WS02003072WS02003073        0.01      0.01      0.01      5.51         0.01
  YS02001759YS02001757        5.98      5.98      6.04      0.01         0.01
  YS02001762YS02001759        5.96      5.96      5.98      0.01         0.01
  YS02001765YS02001762        5.94      5.94      5.96      0.01         0.01
  YS02001770YS02001767        5.92      5.93      5.92      0.03         0.79
  YS02001774YS02001770        5.91      5.91      5.95      0.01         0.01
  YS02001779YS02001774        5.74      5.74      5.95      0.01         0.01
  YS02001649YS02001757        5.96      5.96      6.04      0.01         0.01
  YS02001767YS02001765        5.92      5.92      5.94      0.01         0.01
  YS02006561YS02001783        0.01      0.01      1.23      0.01         0.01
  YS02001783YS02001784        1.23      1.23      1.29      0.88         0.86
  YS02001784YS02001785        1.22      1.29      1.22      2.02         1.22
  YS02001788YS02001790        1.22      1.22      2.92      0.01         0.01
  YS02001790YS02001791        2.92      2.92      3.07      0.01         0.01
  YS02001791YS02001793        3.07      3.07      3.33      0.01         0.01
  YS02001910YS02001907        0.82      0.82      1.45      0.01         0.01
  YS02001786YS02001788        1.22      1.22      1.22      1.65         1.22
  YS02001915YS02001910        0.45      0.45      0.82      0.01         0.01
  YS02001918YS02001915        0.01      0.01      0.45      0.01         0.01
  YS02001629YS02163301        5.89      5.89      5.92      0.01         0.01
  YS02001619YS02001622        5.52      5.52      5.59      0.01         0.02
  YS02001622YS02001625        5.59      5.59      5.79      0.01         0.01
  YS02001625YS02001629        5.55      5.55      5.79      0.01         0.01
  YS02163301YS02001633        5.92      5.92      5.95      0.01         0.01
  YS02163601YS02164001        5.94      5.94      5.97      0.01         0.01
  YS02164001YS02001641        5.94      5.94      5.95      0.01         0.03
  YS02001641YS02001644        5.95      5.95      5.95      1.02         1.32
  YS02001647YS02001649        5.76      5.76      5.96      0.01         0.01
  YS02006553YS02006556        1.11      1.11      1.55      0.01         0.01
  YS02006556YS02006558        1.31      1.31      1.60      0.01         0.01
  YS02001907YS02006553        2.03      2.03      2.24      0.01         0.01
  YS02006558YS02006561        0.65      1.06      0.65      1.89         0.65
  YS02001633YS02163601        5.93      5.93      5.97      0.01         0.01
  YS02001644YS02001647        5.76      5.76      5.95      0.01         0.01
  YS02001745YS02001748        0.01      0.01      5.30      0.01         0.01
  YS02001748YS02001751        5.38      5.38      5.52      0.01         0.01
  YS02001751YS02001754        5.52      5.52      5.74      0.01         0.01
  YS02001754YS02001757        5.76      5.76      6.04      0.01         0.01
  YS02001882YS02001884        0.48      0.48      0.55      0.01         0.01
  YS02001884YS02001887        0.66      0.66      0.71      0.01         0.01
  YS02001890YS02001895        0.41      0.41      0.86      0.01         0.01
  YS02001895YS02001898        0.37      0.37      0.41      0.01         0.01
  YS02001898YS02001901        0.43      0.43      0.65      0.01         0.01
  YS02001901YS02001904        0.61      0.61      0.65      0.01         0.01
  YS02001904YS02001907        0.61      0.61      1.57      0.01         0.01
  YS02001887YS02001890        0.76      0.76      0.80      0.01         0.01
  YS02001652YS02001649        5.77      5.77      5.96      0.01         0.01
  YS02001655YS02001652        5.56      5.56      5.75      0.01         0.01
  YS02001658YS02001655        5.34      5.34      5.56      0.01         0.01
  YS02001661YS02001658        0.20      0.20      5.34      0.01         0.01
  YS02001664YS02001661        0.01      0.01      1.11      0.01         0.01
  YS02001793JiankangQianchi        3.24      3.24      5.77      0.01         0.01
  YS02001757CaochengTiaoxuchi        5.22      5.22      6.04      0.01         0.01
  
  
  ***************
  Pumping Summary
  ***************
  
  ---------------------------------------------------------------------------------------------------------
                                                  Min       Avg       Max     Total     Power    % Time Off
                        Percent   Number of      Flow      Flow      Flow    Volume     Usage    Pump Curve
  Pump                 Utilized   Start-Ups       LPS       LPS       LPS  10^6 ltr     Kw-hr    Low   High
  ---------------------------------------------------------------------------------------------------------
  CC-Pump-1               63.83           3      0.00    134.40    200.00     2.400      3.21    0.0    9.7
  CC-Pump-2               46.80           8      0.00    121.70    200.00     1.620      1.65    0.0    0.0
  JK-Pump-1               61.70           6      0.00    152.28    300.00     2.534     25.66    0.0    0.0
  JK-Pump-2               61.70           6      0.00    162.21    300.00     2.718     25.91    0.0    0.0
  XR-Pump-1               85.10           7      0.00     77.12     95.00     1.881     14.89    0.0    0.0
  XR-Pump-2               91.48           6      0.00     72.12     95.00     1.910     15.31    0.0    0.0
  XR-Pump-3               72.33           8      0.00     61.87     95.00     1.340     10.98    0.0    0.0
  XR-Pump-4               68.08           7      0.00     65.90     95.00     1.254      7.16    0.0    0.0
  

  Analysis begun on:  Tue Dec 21 00:03:07 2021
  Analysis ended on:  Tue Dec 21 00:03:12 2021
  Total elapsed time: 00:00:05