
  EPA STORM WATER MANAGEMENT MODEL - VERSION 5.1 (Build 5.3.0.dev0)
  --------------------------------------------------------------

  WARNING 04: minimum elevation drop used for Conduit WS02004404WS02004405
  WARNING 03: negative offset ignored for Link YS02001904YS02001907
  
  *********************************************************
  NOTE: The summary statistics displayed in this report are
  based on results found at every computational time step,  
  not just on results from each reporting time step.
  *********************************************************
  
  ****************
  Analysis Options
  ****************
  Flow Units ............... LPS
  Process Models:
    Rainfall/Runoff ........ YES
    RDII ................... NO
    Snowmelt ............... NO
    Groundwater ............ NO
    Flow Routing ........... YES
    Ponding Allowed ........ NO
    Water Quality .......... NO
  Infiltration Method ...... HORTON
  Flow Routing Method ...... DYNWAVE
  Surcharge Method ......... EXTRAN
  Starting Date ............ 08/28/2015 08:00:00
  Ending Date .............. 08/28/2015 15:50:00
  Antecedent Dry Days ...... 8.0
  Report Time Step ......... 00:01:00
  Wet Time Step ............ 00:01:00
  Dry Time Step ............ 00:01:00
  Routing Time Step ........ 5.00 sec
  Variable Time Step ....... YES
  Maximum Trials ........... 8
  Number of Threads ........ 4
  Head Tolerance ........... 0.001500 m
  
  
  **************************        Volume         Depth
  Runoff Quantity Continuity     hectare-m            mm
  **************************     ---------       -------
  Total Precipitation ......         5.556        12.164
  Evaporation Loss .........         0.000         0.000
  Infiltration Loss ........         1.427         3.124
  Surface Runoff ...........         3.072         6.726
  Final Storage ............         1.058         2.316
  Continuity Error (%) .....        -0.016
  
  
  **************************        Volume        Volume
  Flow Routing Continuity        hectare-m      10^6 ltr
  **************************     ---------     ---------
  Dry Weather Inflow .......         0.616         6.165
  Wet Weather Inflow .......         3.071        30.709
  Groundwater Inflow .......         0.000         0.000
  RDII Inflow ..............         0.000         0.000
  External Inflow ..........         0.102         1.024
  External Outflow .........         2.183        21.832
  Flooding Loss ............         1.171        11.707
  Evaporation Loss .........         0.000         0.000
  Exfiltration Loss ........         0.000         0.000
  Initial Stored Volume ....         0.076         0.761
  Final Stored Volume ......         0.637         6.366
  Continuity Error (%) .....        -3.226
  
  
  *************************
  Highest Continuity Errors
  *************************
  Node HS02004842 (16.24%)
  Node JK-storage (-14.20%)
  Node YS02001884 (11.24%)
  Node YS02001774 (3.16%)
  Node YSB1171 (3.12%)
  
  
  ***************************
  Time-Step Critical Elements
  ***************************
  Link 3 (58.40%)
  Link WS02006252WS02006251 (34.73%)
  Link WS02006280WS02006229 (1.24%)
  Link WS02006238WS02006235 (1.23%)
  
  
  ********************************
  Highest Flow Instability Indexes
  ********************************
  Link YS02163601YS02164001 (39)
  Link YS02163301YS02001633 (39)
  Link YS02001629YS02163301 (38)
  Link YS02001619YS02001622 (37)
  Link WS02006113WS02006111 (36)
  
  
  *************************
  Routing Time Step Summary
  *************************
  Minimum Time Step           :     0.50 sec
  Average Time Step           :     0.78 sec
  Maximum Time Step           :     5.00 sec
  Percent in Steady State     :    -0.00
  Average Iterations per Step :     4.43
  Percent Not Converging      :    18.59
  
  
  ***************************
  Subcatchment Runoff Summary
  ***************************
  
  ------------------------------------------------------------------------------------------------------------------------------
                            Total      Total      Total      Total     Imperv       Perv      Total       Total     Peak  Runoff
                           Precip      Runon       Evap      Infil     Runoff     Runoff     Runoff      Runoff   Runoff   Coeff
  Subcatchment                 mm         mm         mm         mm         mm         mm         mm    10^6 ltr      LPS
  ------------------------------------------------------------------------------------------------------------------------------
  sub0                      12.16       0.00       0.00       0.85      10.05       0.00      10.05        0.01     1.91   0.826
  sub1                      12.16       0.00       0.00       1.34       9.56       0.00       9.56        0.06    14.15   0.786
  sub2                      12.16       0.00       0.00       4.50       6.75       0.00       6.75        0.06    13.75   0.555
  sub3                      12.16       0.00       0.00       4.50       6.71       0.00       6.71        0.15    32.07   0.552
  sub4                      12.16       0.00       0.00       1.34       9.40       0.00       9.40        0.20    40.20   0.773
  sub5                      12.16       0.00       0.00       0.85       9.99       0.00       9.99        0.11    25.19   0.822
  sub7                      12.16       0.00       0.00       1.09       9.81       0.00       9.81        0.03     7.55   0.807
  sub8                      12.16       0.00       0.00       1.09       9.80       0.00       9.80        0.06    14.17   0.806
  sub9                      12.16       0.00       0.00       1.09       9.80       0.00       9.80        0.05    10.64   0.806
  sub10                     12.16       0.00       0.00       0.97       9.89       0.00       9.89        0.11    24.40   0.813
  sub11                     12.16       0.00       0.00       0.97       9.91       0.00       9.91        0.12    26.15   0.815
  sub12                     12.16       0.00       0.00       1.58       9.39       0.00       9.39        0.08    19.06   0.772
  sub14                     12.16       0.00       0.00       1.09       9.80       0.00       9.80        0.09    21.02   0.805
  sub15                     12.16       0.00       0.00       3.65       7.53       0.00       7.53        0.13    29.11   0.619
  sub16                     12.16       0.00       0.00       4.01       7.23       0.00       7.23        0.08    17.47   0.594
  sub17                     12.16       0.00       0.00       3.89       7.34       0.00       7.34        0.06    14.47   0.603
  sub22                     12.16       0.00       0.00       5.23       6.14       0.00       6.14        0.39    88.27   0.505
  sub23                     12.16       0.00       0.00       4.50       6.79       0.00       6.79        0.32    73.89   0.558
  sub60                     12.16       0.00       0.00       1.46       7.71       0.00       7.71        2.34   297.17   0.634
  sub61                     12.16       0.00       0.00       2.07       7.87       0.00       7.87        2.43   359.80   0.647
  sub62                     12.16       0.00       0.00       0.97       8.55       0.00       8.55        2.63   372.87   0.703
  sub63                     12.16       0.00       0.00       3.53       6.89       0.00       6.89        2.09   327.80   0.567
  sub64                     12.16       0.00       0.00       1.82       7.40       0.00       7.40        2.25   282.66   0.608
  sub65                     12.16       0.00       0.00       1.58       7.52       0.00       7.52        2.31   287.20   0.618
  sub66                     12.16       0.00       0.00       3.53       6.36       0.00       6.36        1.95   257.27   0.523
  sub67                     12.16       0.00       0.00       0.97       9.05       0.00       9.05        2.79   452.90   0.744
  sub68                     12.16       0.00       0.00       1.70       8.28       0.00       8.28        2.55   391.99   0.681
  sub69                     12.16       0.00       0.00       1.82       8.61       0.00       8.61        2.01   355.79   0.708
  sub70                     12.16       8.79       0.00       7.03      11.43       0.10      11.53        2.64   335.00   0.550
  sub71                     12.16       0.00       0.00       0.97       8.31       0.00       8.31        1.96   263.63   0.683
  sub72                     12.16       0.00       0.00       0.85       6.56       0.00       6.56        1.34   129.40   0.540
  sub73                     12.16      11.23       0.00       7.88      12.47       0.08      12.54        2.95   300.52   0.536
  sub74                     12.16       0.00       0.00       9.12       2.57       0.00       2.57        1.03   189.59   0.211
  
  
  ******************
  Node Depth Summary
  ******************
  
  ---------------------------------------------------------------------------------
                                 Average  Maximum  Maximum  Time of Max    Reported
                                   Depth    Depth      HGL   Occurrence   Max Depth
  Node                 Type       Meters   Meters   Meters  days hr:min      Meters
  ---------------------------------------------------------------------------------
  WS02001211           JUNCTION     0.67     0.77     5.60     0  05:11        0.77
  WS02001212           JUNCTION     0.39     0.47     5.54     0  05:11        0.47
  WS02001213           JUNCTION     0.63     0.73     5.49     0  02:50        0.73
  WS02003069           JUNCTION     0.45     0.58     5.17     0  02:52        0.58
  WS02003072           JUNCTION     0.52     0.64     5.01     0  02:53        0.64
  WS02003073           JUNCTION     0.31     0.39     4.46     0  02:53        0.39
  WS02003060           JUNCTION     0.40     0.52     5.45     0  02:52        0.52
  WS02003066           JUNCTION     0.24     0.33     5.88     0  03:05        0.33
  WS02003059           JUNCTION     0.69     0.79     5.48     0  02:51        0.79
  WS02003067           JUNCTION     0.59     0.75     6.07     0  03:05        0.75
  WS02004401           JUNCTION     0.70     1.00     7.00     0  03:04        1.00
  WS02004402           JUNCTION     0.73     1.01     6.97     0  03:04        1.01
  WS02004403           JUNCTION     0.75     1.01     6.94     0  03:04        1.01
  WS02004404           JUNCTION     0.83     1.07     6.92     0  03:04        1.07
  WS02004406           JUNCTION     0.83     1.04     6.87     0  03:04        1.04
  WS02004409           JUNCTION     0.52     0.77     6.54     0  03:05        0.77
  WS02004410           JUNCTION     0.54     0.77     6.49     0  03:04        0.77
  WS02004411           JUNCTION     0.55     0.77     6.45     0  03:05        0.77
  WS02004412           JUNCTION     0.56     0.77     6.41     0  03:05        0.77
  WS02004413           JUNCTION     0.72     0.92     6.39     0  03:05        0.92
  WS02004405           JUNCTION     0.82     1.06     6.91     0  03:04        1.06
  WS02006109           JUNCTION     0.79     1.12     7.74     0  03:01        1.11
  WS02006110           JUNCTION     0.77     1.03     7.61     0  03:01        1.01
  WS02006111           JUNCTION     0.23     0.40     7.10     0  03:03        0.39
  WS02006112           JUNCTION     0.88     1.23     7.11     0  03:03        1.22
  WS02006113           JUNCTION     0.36     0.52     7.41     0  03:03        0.51
  WS02006115           JUNCTION     0.60     0.92     7.06     0  03:03        0.91
  WS02006116           JUNCTION     0.68     0.99     7.03     0  03:03        0.99
  WS02006230           JUNCTION     0.77     1.20     7.94     0  03:02        1.20
  WS02006231           JUNCTION     0.52     0.86     7.98     0  03:01        0.86
  WS02006232           JUNCTION     0.65     0.98     8.02     0  03:02        0.97
  WS02006234           JUNCTION     0.57     0.90     8.05     0  03:01        0.90
  WS02006235           JUNCTION     0.60     0.93     8.10     0  03:02        0.92
  WS02006238           JUNCTION     0.62     0.96     8.10     0  03:02        0.95
  WS02006240           JUNCTION     0.51     0.84     8.14     0  03:01        0.84
  WS02006242           JUNCTION     0.56     0.90     8.16     0  03:01        0.89
  WS02006243           JUNCTION     0.43     0.77     8.19     0  03:01        0.77
  WS02006245           JUNCTION     0.40     0.73     8.22     0  03:01        0.73
  WS02006247           JUNCTION     0.41     0.74     8.24     0  03:01        0.74
  WS02006248           JUNCTION     0.35     0.66     8.25     0  03:01        0.66
  WS02006249           JUNCTION     0.38     0.67     8.27     0  03:01        0.67
  WS02006239           JUNCTION     0.57     0.90     8.11     0  03:01        0.90
  WS02006251           JUNCTION     0.36     0.72     8.39     0  03:00        0.72
  WS02006252           JUNCTION     0.31     0.59     8.84     0  03:08        0.59
  WS02006253           JUNCTION     0.39     0.75     8.39     0  03:00        0.75
  WS02006256           JUNCTION     1.11     2.35     9.28     0  00:00        1.22
  WS02004138           JUNCTION     0.15     0.19     7.44     0  05:10        0.19
  WS02004407           JUNCTION     0.23     0.33     6.65     0  03:04        0.33
  WS02006228           JUNCTION     0.79     1.20     7.85     0  03:01        1.19
  WS02006229           JUNCTION     0.78     1.21     7.90     0  03:02        1.21
  WS02006280           JUNCTION     0.08     0.19     8.46     0  03:02        0.19
  WS02006284           JUNCTION     0.38     0.55     8.95     0  03:02        0.55
  WS02006287           JUNCTION     0.11     0.28     9.24     0  03:01        0.28
  WSF200               JUNCTION     0.23     0.35     5.58     0  02:53        0.35
  HS02004901           JUNCTION     0.14     0.28    10.10     0  03:01        0.28
  HS02004881           JUNCTION     0.01     0.04     9.07     0  03:01        0.04
  HS02004876           JUNCTION     0.05     0.12     9.15     0  03:01        0.12
  HS02004870           JUNCTION     0.02     0.06     9.35     0  03:01        0.06
  HS02004862           JUNCTION     0.02     0.07     9.46     0  03:01        0.07
  HS02004856           JUNCTION     0.08     0.13     9.55     0  03:01        0.13
  HS02004852           JUNCTION     0.01     0.05     9.56     0  03:01        0.05
  HS02004848           JUNCTION     0.01     0.05     9.65     0  03:01        0.05
  HS02004842           JUNCTION     0.34     0.38     9.65     0  03:01        0.38
  HS02004837           JUNCTION     0.03     0.07     9.65     0  03:01        0.07
  HS02004830           JUNCTION     0.04     0.08     9.55     0  03:01        0.08
  HS02004824           JUNCTION     0.03     0.06     9.46     0  03:01        0.06
  HS02004817           JUNCTION     0.45     0.60     9.44     0  03:01        0.60
  HS02004807           JUNCTION     0.14     0.27     9.44     0  03:01        0.27
  HS02004802           JUNCTION     0.17     0.30     9.43     0  03:01        0.30
  HS02004799           JUNCTION     0.14     0.33     9.54     0  03:01        0.33
  HS02004792           JUNCTION     0.04     0.14     9.66     0  03:01        0.14
  HS02004788           JUNCTION     0.03     0.10    10.00     0  03:01        0.10
  HS02004785           JUNCTION     0.06     0.17    10.07     0  03:01        0.17
  HS02004777           JUNCTION     0.16     0.30    10.10     0  03:01        0.30
  HS02004770           JUNCTION     0.13     0.27    10.10     0  03:01        0.27
  HS02004480           JUNCTION     0.10     0.26     9.50     0  03:01        0.26
  HS02004479           JUNCTION     0.13     0.30     9.50     0  03:01        0.30
  HS02004478           JUNCTION     0.07     0.18     9.41     0  03:01        0.18
  YS02001745           JUNCTION     0.68     0.87     8.39     0  03:30        0.87
  YS02001748           JUNCTION     1.07     2.27     9.35     0  02:42        1.31
  YS02001751           JUNCTION     1.25     2.17     9.05     0  02:43        1.52
  YS02001754           JUNCTION     1.51     2.19     8.80     0  02:43        1.80
  YS02001762           JUNCTION     1.71     2.09     8.49     0  02:43        2.02
  YS02001765           JUNCTION     1.66     2.02     8.47     0  02:43        1.97
  YS02001767           JUNCTION     1.63     1.98     8.47     0  02:43        1.92
  YS02001770           JUNCTION     1.62     1.95     8.44     0  02:42        1.90
  YS02001774           JUNCTION     1.69     2.01     8.44     0  02:43        1.96
  YS02001779           JUNCTION     1.44     1.68     8.37     0  02:41        1.68
  YS02001882           JUNCTION     0.56     1.70     8.42     0  02:51        1.60
  YS02001884           JUNCTION     0.66     1.78     8.40     0  02:54        1.70
  YS02001759           JUNCTION     1.75     2.12     8.49     0  02:43        2.07
  YS02001887           JUNCTION     0.73     1.83     8.37     0  02:54        1.78
  YS02001890           JUNCTION     0.76     1.81     8.32     0  02:54        1.80
  YS02001898           JUNCTION     0.53     1.59     8.32     0  02:54        1.55
  YS02001901           JUNCTION     0.65     1.69     8.30     0  02:54        1.66
  YS02001904           JUNCTION     0.63     1.64     8.27     0  02:54        1.63
  YS02001907           JUNCTION     0.96     1.96     8.25     0  02:54        1.96
  YS02001910           JUNCTION     0.75     1.92     8.43     0  02:54        1.77
  YS02001915           JUNCTION     0.54     1.83     8.55     0  02:54        1.59
  YS02001918           JUNCTION     0.28     1.72     8.79     0  02:54        1.28
  YS02001619           JUNCTION     1.23     1.61     8.54     0  02:40        1.47
  YS02001629           JUNCTION     1.58     1.85     8.40     0  02:40        1.84
  YS02001641           JUNCTION     1.68     2.00     8.43     0  02:43        1.93
  YS02001644           JUNCTION     1.68     1.92     8.35     0  02:42        1.92
  YS02001652           JUNCTION     1.52     2.16     8.76     0  02:56        2.11
  YS02001655           JUNCTION     1.28     2.20     9.05     0  02:39        2.10
  YS02001920           JUNCTION     0.38     1.55     8.56     0  02:54        1.36
  YS02001923           JUNCTION     0.22     1.13     8.39     0  02:56        1.12
  YS02001926           JUNCTION     0.27     0.97     8.41     0  02:56        0.90
  YS02001929           JUNCTION     0.15     0.74     8.43     0  02:56        0.67
  YS02001658           JUNCTION     1.02     2.30     9.44     0  02:40        2.07
  YS02001661           JUNCTION     0.79     2.46     9.86     0  02:56        1.92
  YS02001664           JUNCTION     0.35     0.57     8.49     0  02:54        0.56
  YS02001622           JUNCTION     1.25     1.62     8.52     0  02:40        1.49
  YS02001633           JUNCTION     1.67     2.02     8.47     0  02:43        1.94
  YS02001649           JUNCTION     1.72     2.05     8.44     0  02:40        2.05
  YS02001757           JUNCTION     1.84     2.21     8.47     0  02:43        2.16
  YS02001895           JUNCTION     0.52     1.58     8.33     0  02:54        1.54
  YS02001625           JUNCTION     1.53     1.78     8.38     0  02:40        1.78
  YS02163301           JUNCTION     1.61     1.95     8.46     0  02:43        1.88
  YS02163601           JUNCTION     1.72     2.08     8.48     0  02:43        1.98
  YS02164001           JUNCTION     1.66     2.02     8.48     0  02:43        1.91
  YS02001647           JUNCTION     1.51     1.82     8.43     0  02:45        1.79
  YSB1154              JUNCTION     0.27     0.45     9.51     0  03:01        0.45
  YSB6556              JUNCTION     0.17     0.34     9.51     0  03:01        0.34
  YSB1174              JUNCTION     0.22     0.40     9.51     0  03:01        0.40
  YSB1171              JUNCTION     0.42     0.60     9.51     0  03:01        0.60
  YS02006553           JUNCTION     0.96     1.98     8.26     0  02:54        1.96
  YS02006561           JUNCTION     0.32     1.19     7.85     0  02:54        1.07
  YS02006556           JUNCTION     0.92     1.96     8.28     0  02:54        1.91
  YS02006558           JUNCTION     0.97     2.01     8.27     0  02:54        1.95
  YS02001783           JUNCTION     0.57     1.59     7.73     0  02:54        1.46
  YS02001784           JUNCTION     0.59     1.54     7.60     0  02:54        1.41
  YS02001786           JUNCTION     0.54     1.65     7.68     0  02:50        1.25
  YS02001788           JUNCTION     0.48     1.84     7.82     0  02:50        1.12
  YS02001790           JUNCTION     0.62     1.93     7.57     0  02:49        1.29
  YS02001791           JUNCTION     0.61     1.38     6.85     0  02:50        1.27
  YS02001793           JUNCTION     0.87     1.82     6.65     0  02:54        1.80
  WS02004139           JUNCTION     0.61     0.71     5.62     0  05:10        0.71
  WSC                  OUTFALL      0.31     0.39     1.06     0  02:53        0.39
  3                    OUTFALL      0.14     0.23     6.23     0  00:00        0.22
  4                    OUTFALL      0.03     0.17     7.17     0  03:01        0.17
  5                    OUTFALL      0.00     0.00     5.00     0  00:00        0.00
  JK-storage           STORAGE      3.15     5.80     6.60     0  02:51        5.80
  CC-storage           STORAGE      1.05     1.37     8.37     0  06:24        1.37
  XR-storage           STORAGE      6.74     7.72     5.72     0  02:55        7.72
  
  
  *******************
  Node Inflow Summary
  *******************
  
  -------------------------------------------------------------------------------------------------
                                  Maximum  Maximum                  Lateral       Total        Flow
                                  Lateral    Total  Time of Max      Inflow      Inflow     Balance
                                   Inflow   Inflow   Occurrence      Volume      Volume       Error
  Node                 Type           LPS      LPS  days hr:min    10^6 ltr    10^6 ltr     Percent
  -------------------------------------------------------------------------------------------------
  WS02001211           JUNCTION      7.35   381.84     0  05:10       0.207        7.11       0.409
  WS02001212           JUNCTION      0.00   378.01     0  05:11           0        7.08       0.218
  WS02001213           JUNCTION      0.00   376.61     0  05:11           0        7.06       0.280
  WS02003069           JUNCTION      0.32   942.81     0  02:52     0.00902        15.4       0.135
  WS02003072           JUNCTION      0.00   942.27     0  02:52           0        15.3       0.180
  WS02003073           JUNCTION      1.82   943.69     0  02:53      0.0514        15.4       0.192
  WS02003060           JUNCTION     16.53   943.06     0  02:51       0.466        15.4       0.131
  WS02003066           JUNCTION      0.00   680.53     0  03:06           0         7.9       0.040
  WS02003059           JUNCTION      0.00   375.82     0  05:12           0        7.04       0.432
  WS02003067           JUNCTION      0.00   680.38     0  03:05           0         7.9       0.090
  WS02004401           JUNCTION      0.00   684.38     0  03:03           0        8.08       0.205
  WS02004402           JUNCTION      0.00   682.26     0  03:04           0        8.06       0.199
  WS02004403           JUNCTION      0.00   682.12     0  03:04           0        8.05       0.185
  WS02004404           JUNCTION      0.16   682.54     0  03:04     0.00457        8.04       0.144
  WS02004406           JUNCTION      0.00   682.82     0  03:04           0        8.01       0.352
  WS02004409           JUNCTION      0.00   682.59     0  03:04           0        7.98       0.130
  WS02004410           JUNCTION      0.00   681.73     0  03:04           0        7.97       0.155
  WS02004411           JUNCTION      0.00   681.07     0  03:05           0        7.95       0.165
  WS02004412           JUNCTION      0.00   680.75     0  03:05           0        7.94       0.188
  WS02004413           JUNCTION      0.00   680.45     0  03:05           0        7.93       0.293
  WS02004405           JUNCTION      0.04   682.67     0  03:04     0.00107        8.03       0.218
  WS02006109           JUNCTION      1.23   673.88     0  03:01      0.0347        8.11       0.232
  WS02006110           JUNCTION      0.00   673.89     0  03:01           0        8.09       0.191
  WS02006111           JUNCTION      0.00   705.33     0  03:02           0        8.07       0.034
  WS02006112           JUNCTION     14.47   686.70     0  03:03      0.0629        8.13       0.283
  WS02006113           JUNCTION      0.00   674.92     0  03:01           0        8.08       0.079
  WS02006115           JUNCTION      0.00   687.24     0  03:03           0        8.11       0.176
  WS02006116           JUNCTION      0.00   685.12     0  03:02           0        8.09       0.176
  WS02006230           JUNCTION     10.28   400.65     0  06:02        0.29        6.22       0.178
  WS02006231           JUNCTION      0.00   391.91     0  06:01           0        5.94       0.108
  WS02006232           JUNCTION      0.00   392.18     0  06:01           0        5.95       0.212
  WS02006234           JUNCTION      0.00   393.67     0  06:01           0        5.96       0.067
  WS02006235           JUNCTION      0.00   393.32     0  06:01           0        5.99       0.140
  WS02006238           JUNCTION      0.00   304.70     0  04:41           0         3.6       0.135
  WS02006240           JUNCTION      0.00   309.23     0  04:41           0        3.59       0.148
  WS02006242           JUNCTION      0.00   309.51     0  04:41           0        3.58       0.165
  WS02006243           JUNCTION      0.00   317.32     0  04:40           0        3.58      -0.019
  WS02006245           JUNCTION      0.00   321.91     0  04:40           0        3.58       0.056
  WS02006247           JUNCTION      0.00   326.56     0  04:40           0        3.58       0.005
  WS02006248           JUNCTION      0.00   330.95     0  04:40           0        3.58      -0.026
  WS02006249           JUNCTION      0.00   481.66     0  03:01           0        4.08       0.041
  WS02006239           JUNCTION      0.00   305.94     0  04:41           0        3.59       0.173
  WS02006251           JUNCTION      0.08   482.16     0  03:01     0.00217        4.09       0.002
  WS02006252           JUNCTION      0.00   400.00     0  03:00           0        3.71       0.002
  WS02006253           JUNCTION      1.91    81.00     0  03:01     0.00814       0.371      -0.071
  WS02006256           JUNCTION      0.00   600.00     0  00:00           0        8.41       0.027
  WS02004138           JUNCTION      0.00   379.99     0  05:10           0        6.93       0.063
  WS02004407           JUNCTION      0.00   683.08     0  03:04           0        7.98       0.061
  WS02006228           JUNCTION      0.00   672.69     0  03:01           0        8.09       0.155
  WS02006229           JUNCTION      0.00   671.53     0  03:02           0         8.1       0.112
  WS02006280           JUNCTION      0.00   375.54     0  03:02           0        1.89       0.004
  WS02006284           JUNCTION      0.10   375.54     0  03:02      0.0027        1.89       0.064
  WS02006287           JUNCTION      0.00   375.27     0  03:01           0        1.89       0.037
  WSF200               JUNCTION      0.00   680.59     0  03:06           0        7.89       0.034
  HS02004901           JUNCTION     17.47    17.47     0  03:01      0.0757      0.0759       2.380
  HS02004881           JUNCTION      7.55    79.19     0  03:01      0.0331       0.357       0.085
  HS02004876           JUNCTION     14.15    72.10     0  03:01      0.0636       0.324       0.171
  HS02004870           JUNCTION     14.17    58.27     0  03:01      0.0626       0.261       0.043
  HS02004862           JUNCTION     13.95    44.46     0  03:01      0.0685       0.198       0.089
  HS02004856           JUNCTION     10.64    30.79     0  03:01      0.0471       0.131       1.116
  HS02004852           JUNCTION      0.00    20.44     0  03:01           0       0.084       0.069
  HS02004848           JUNCTION     32.07    32.07     0  03:01       0.151       0.151       0.033
  HS02004842           JUNCTION      0.00    11.42     0  03:01           0      0.0801      19.388
  HS02004837           JUNCTION     30.75    41.91     0  03:01       0.288       0.355       0.230
  HS02004830           JUNCTION      0.15    41.84     0  03:01     0.00423       0.346       0.358
  HS02004824           JUNCTION     40.25    81.79     0  03:01       0.197       0.542       0.100
  HS02004817           JUNCTION      0.60    82.18     0  03:01      0.0169       0.558       3.079
  HS02004807           JUNCTION     26.15   107.24     0  03:01       0.115       0.657       0.656
  HS02004802           JUNCTION      0.00   106.49     0  03:01           0       0.653       0.620
  HS02004799           JUNCTION     21.02   227.51     0  03:01      0.0932        1.06       0.236
  HS02004792           JUNCTION     88.55   207.32     0  03:01       0.396       0.966       0.043
  HS02004788           JUNCTION     30.78   119.37     0  03:01       0.177       0.571       0.068
  HS02004785           JUNCTION      0.15    89.79     0  03:01     0.00423       0.396       0.125
  HS02004777           JUNCTION      0.03    90.24     0  03:01    0.000846       0.397       1.326
  HS02004770           JUNCTION     73.89    90.93     0  03:01       0.324       0.398       0.787
  HS02004480           JUNCTION      0.00   269.27     0  03:01           0        1.25       0.099
  HS02004479           JUNCTION      0.00    42.82     0  03:02           0       0.204       0.361
  HS02004478           JUNCTION      0.00   375.17     0  03:01           0        1.89       0.018
  YS02001745           JUNCTION    297.18   413.97     0  02:42        2.34        2.35       0.484
  YS02001748           JUNCTION      0.04   612.97     0  02:42     0.00127        2.34       0.993
  YS02001751           JUNCTION      0.01   310.37     0  03:01     0.00031         2.3       1.026
  YS02001754           JUNCTION      0.26   310.56     0  03:01     0.00733        2.29       1.086
  YS02001762           JUNCTION      0.00   342.95     0  02:56           0        1.84       1.150
  YS02001765           JUNCTION      0.00   342.97     0  02:56           0        1.84       1.327
  YS02001767           JUNCTION      0.54   342.90     0  02:56      0.0151        1.86       1.950
  YS02001770           JUNCTION    373.02   373.02     0  03:01        2.63        2.65       1.194
  YS02001774           JUNCTION      0.00   247.30     0  03:35           0       0.795       3.258
  YS02001779           JUNCTION      0.01   247.54     0  03:35    0.000141       0.765       2.038
  YS02001882           JUNCTION      0.00    23.70     0  02:51           0      0.0184      13.950
  YS02001884           JUNCTION      0.00    28.93     0  02:51           0       0.054      12.668
  YS02001759           JUNCTION    359.84   675.39     0  02:56        2.43        4.22       0.545
  YS02001887           JUNCTION    453.35   453.35     0  03:01         2.8        2.83       0.299
  YS02001890           JUNCTION      0.00   453.45     0  03:01           0        2.79       0.331
  YS02001898           JUNCTION      0.00   453.40     0  03:01           0        2.77       0.114
  YS02001901           JUNCTION      0.00   453.47     0  03:01           0        2.77       0.250
  YS02001904           JUNCTION      0.00   453.55     0  03:01           0        2.77       0.226
  YS02001907           JUNCTION      0.00   930.11     0  02:57           0        6.12       0.398
  YS02001910           JUNCTION      0.00   503.82     0  02:57           0        3.37       0.345
  YS02001915           JUNCTION    263.65   503.72     0  02:57        1.96         3.4       0.179
  YS02001918           JUNCTION      0.00   257.48     0  02:57           0        1.46       0.129
  YS02001619           JUNCTION    257.27   257.27     0  03:01        1.95        1.95       0.620
  YS02001629           JUNCTION      0.00   209.39     0  02:50           0        1.64       1.759
  YS02001641           JUNCTION      0.00   441.40     0  02:50           0        3.85       0.546
  YS02001644           JUNCTION    282.70   958.04     0  03:30        2.25         8.4       0.311
  YS02001652           JUNCTION      0.00   376.24     0  03:01           0        2.04       1.158
  YS02001655           JUNCTION      0.15   376.49     0  03:01     0.00434        2.06       1.233
  YS02001920           JUNCTION      2.87   257.42     0  02:57      0.0809        1.45       0.204
  YS02001923           JUNCTION      0.04   280.38     0  02:57     0.00106        1.35       0.039
  YS02001926           JUNCTION      0.05   202.11     0  02:56     0.00147        1.34       0.256
  YS02001929           JUNCTION    129.40   129.40     0  03:01        1.34        1.34       0.040
  YS02001658           JUNCTION      0.00   632.70     0  02:40           0        2.09       1.097
  YS02001661           JUNCTION      0.00   696.33     0  02:54           0        2.83      -0.082
  YS02001664           JUNCTION    327.80   356.91     0  02:54        2.09        2.82       0.254
  YS02001622           JUNCTION      0.00   257.46     0  03:01           0        1.94       1.653
  YS02001633           JUNCTION    287.40   441.39     0  02:50        2.32        3.91       0.827
  YS02001649           JUNCTION      0.00   945.42     0  02:51           0        4.96       0.754
  YS02001757           JUNCTION      0.00  1794.52     0  02:51           0        9.08       1.026
  YS02001895           JUNCTION      0.00   453.52     0  03:01           0        2.78       0.176
  YS02001625           JUNCTION      0.00   257.29     0  03:01           0         1.9       2.055
  YS02163301           JUNCTION      0.00   221.13     0  02:39           0        1.62       1.492
  YS02163601           JUNCTION      0.11   441.51     0  02:50      0.0031        3.87       0.782
  YS02164001           JUNCTION      0.00   441.43     0  02:50           0        3.85       0.517
  YS02001647           JUNCTION      0.00   672.92     0  02:50           0        3.93       0.726
  YSB1154              JUNCTION     25.19    25.19     0  03:01       0.113       0.114       1.286
  YSB6556              JUNCTION      0.00    24.91     0  03:01           0       0.115       1.100
  YSB1174              JUNCTION     19.06    19.06     0  03:01      0.0821      0.0827       1.581
  YSB1171              JUNCTION      0.00    43.19     0  03:01           0       0.203       3.219
  YS02006553           JUNCTION      0.00   666.65     0  03:17           0        5.92       0.263
  YS02006561           JUNCTION      0.00   964.08     0  03:00           0        8.44       0.008
  YS02006556           JUNCTION      0.00   666.41     0  03:17           0        5.92       0.191
  YS02006558           JUNCTION    392.87   964.40     0  03:00        2.57        8.47       0.063
  YS02001783           JUNCTION      0.00   964.10     0  03:00           0        8.44       0.029
  YS02001784           JUNCTION      1.06   965.09     0  03:00      0.0299        8.47       0.046
  YS02001786           JUNCTION      0.06   965.26     0  03:00     0.00159        8.46       0.042
  YS02001788           JUNCTION      0.07   965.26     0  03:00       0.002        8.46       0.023
  YS02001790           JUNCTION      0.15   965.45     0  03:00     0.00437        8.46       0.031
  YS02001791           JUNCTION      0.00   965.45     0  03:00           0        8.46       0.013
  YS02001793           JUNCTION      0.00   965.48     0  03:00           0        8.46       0.003
  WS02004139           JUNCTION      0.32   379.65     0  05:10     0.00905        6.93       0.471
  WSC                  OUTFALL       0.00   943.29     0  02:53           0        15.3       0.000
  3                    OUTFALL       0.00   597.65     0  00:00           0           6       0.000
  4                    OUTFALL       0.00   248.89     0  03:01           0         0.5       0.000
  5                    OUTFALL       0.00     0.00     0  00:00           0           0       0.000 ltr
  JK-storage           STORAGE       0.00   965.49     0  03:00           0        8.61     -12.433
  CC-storage           STORAGE       0.00  1794.48     0  02:51           0        7.62       0.695
  XR-storage           STORAGE     690.11   690.11     0  03:01        9.61        10.2      -0.002
  
  
  **********************
  Node Surcharge Summary
  **********************
  
  Surcharging occurs when water rises above the top of the highest conduit.
  ---------------------------------------------------------------------
                                               Max. Height   Min. Depth
                                   Hours       Above Crown    Below Rim
  Node                 Type      Surcharged         Meters       Meters
  ---------------------------------------------------------------------
  WS02004402           JUNCTION        0.09          0.010        1.730
  WS02004403           JUNCTION        0.11          0.012        2.018
  WS02004404           JUNCTION        0.79          0.072        2.708
  WS02004406           JUNCTION        0.51          0.041        2.409
  WS02004405           JUNCTION        0.68          0.058        2.742
  WS02006109           JUNCTION        2.04          0.303        1.517
  WS02006110           JUNCTION        1.18          0.117        1.733
  WS02006112           JUNCTION        1.28          0.226        1.454
  WS02006230           JUNCTION        0.76          0.119        1.451
  WS02006231           JUNCTION        0.98          0.149        1.381
  WS02006232           JUNCTION        1.96          0.285        1.195
  WS02006234           JUNCTION        1.17          0.178        1.062
  WS02006235           JUNCTION        1.48          0.221        1.069
  WS02006238           JUNCTION        1.65          0.237        1.193
  WS02006240           JUNCTION        1.06          0.132        1.258
  WS02006242           JUNCTION        1.33          0.165        0.655
  WS02006243           JUNCTION        0.51          0.063        0.707
  WS02006245           JUNCTION        0.17          0.024        0.826
  WS02006247           JUNCTION        0.19          0.026        0.734
  WS02006239           JUNCTION        1.16          0.163        1.127
  WS02006252           JUNCTION        1.19          0.193        0.907
  WS02006256           JUNCTION        0.01          1.050        0.000
  WS02006228           JUNCTION        1.96          0.366        1.834
  YS02001748           JUNCTION        5.04          1.190        0.000
  YS02001751           JUNCTION        5.17          1.171        0.029
  YS02001754           JUNCTION        5.39          1.140        0.010
  YS02001762           JUNCTION        5.64          1.090        0.060
  YS02001765           JUNCTION        5.61          1.020        0.080
  YS02001767           JUNCTION        5.58          0.983        0.047
  YS02001770           JUNCTION        5.57          0.920        0.000
  YS02001774           JUNCTION        5.63          1.014        0.036
  YS02001779           JUNCTION        5.38          0.680        0.000
  YS02001882           JUNCTION        0.72          0.700        0.130
  YS02001884           JUNCTION        0.76          0.723        0.147
  YS02001759           JUNCTION        5.66          1.122        0.088
  YS02001887           JUNCTION        0.86          0.783        0.167
  YS02001890           JUNCTION        0.90          0.760        0.000
  YS02001898           JUNCTION        0.68          0.555        0.185
  YS02001901           JUNCTION        0.82          0.689        0.181
  YS02001904           JUNCTION        0.79          0.643        0.207
  YS02001907           JUNCTION        1.50          0.950        0.000
  YS02001910           JUNCTION        0.96          0.923        0.177
  YS02001915           JUNCTION        0.72          0.831        0.169
  YS02001918           JUNCTION        0.47          0.723        0.087
  YS02001619           JUNCTION        5.20          0.610        0.000
  YS02001629           JUNCTION        5.21          0.470        0.000
  YS02001641           JUNCTION        5.62          0.997        0.103
  YS02001644           JUNCTION        5.62          0.920        0.000
  YS02001652           JUNCTION        5.41          1.130        0.000
  YS02001655           JUNCTION        5.21          1.200        0.000
  YS02001920           JUNCTION        0.51          0.554        0.586
  YS02001658           JUNCTION        5.07          1.300        0.000
  YS02001661           JUNCTION        0.22          1.390        0.000
  YS02001622           JUNCTION        5.25          0.620        0.000
  YS02001633           JUNCTION        5.60          1.000        0.060
  YS02001649           JUNCTION        5.64          1.050        0.000
  YS02001757           JUNCTION        5.74          1.210        0.000
  YS02001895           JUNCTION        0.70          0.580        0.170
  YS02001625           JUNCTION        5.43          0.780        0.000
  YS02163301           JUNCTION        5.58          0.947        0.083
  YS02163601           JUNCTION        5.64          1.079        0.001
  YS02164001           JUNCTION        5.61          1.018        0.082
  YS02001647           JUNCTION        5.42          0.821        0.079
  YS02006553           JUNCTION        1.56          0.980        0.210
  YS02006561           JUNCTION        0.60          0.389        0.761
  YS02006556           JUNCTION        1.19          0.925        0.425
  YS02006558           JUNCTION        1.15          0.907        0.493
  YS02001783           JUNCTION        1.11          0.790        0.810
  YS02001784           JUNCTION        1.15          0.736        0.754
  YS02001786           JUNCTION        1.06          0.852        0.578
  YS02001788           JUNCTION        1.05          1.041        0.439
  YS02001790           JUNCTION        2.44          1.130        0.027
  YS02001791           JUNCTION        2.57          0.578        1.342
  YS02001793           JUNCTION        2.77          0.819        1.781
  
  
  *********************
  Node Flooding Summary
  *********************
  
  Flooding refers to all water that overflows a node, whether it ponds or not.
  --------------------------------------------------------------------------
                                                             Total   Maximum
                                 Maximum   Time of Max       Flood    Ponded
                        Hours       Rate    Occurrence      Volume     Depth
  Node                 Flooded       LPS   days hr:min    10^6 ltr    Meters
  --------------------------------------------------------------------------
  WS02006256              0.01    406.11      0  00:00       0.001     0.000
  YS02001748              0.01    243.55      0  02:43       0.000     0.000
  YS02001770              0.01      6.14      0  02:43       0.000     0.000
  YS02001779              2.67    247.46      0  03:35       0.745     0.000
  YS02001890              0.01     14.75      0  02:54       0.000     0.000
  YS02001907              0.34    338.26      0  03:01       0.189     0.000
  YS02001619              0.01     20.04      0  02:41       0.000     0.000
  YS02001629              0.01     41.15      0  02:41       0.001     0.000
  YS02001644              4.94    958.01      0  03:30       6.751     0.000
  YS02001652              0.01     23.77      0  03:10       0.000     0.000
  YS02001655              0.01    160.13      0  02:39       0.000     0.000
  YS02001658              0.01    367.89      0  02:40       0.001     0.000
  YS02001661              0.01    187.78      0  03:10       0.002     0.000
  YS02001622              0.01     48.56      0  02:41       0.000     0.000
  YS02001649              0.10     51.37      0  03:10       0.006     0.000
  YS02001757              0.01     20.90      0  02:43       0.000     0.000
  YS02001625              0.82    168.38      0  03:01       0.231     0.000
  JK-storage              2.11    365.43      0  03:00       1.420     0.000
  XR-storage              4.66    690.10      0  03:01       2.361     0.000
  
  
  **********************
  Storage Volume Summary
  **********************
  
  --------------------------------------------------------------------------------------------------
                         Average     Avg  Evap Exfil       Maximum     Max    Time of Max    Maximum
                          Volume    Pcnt  Pcnt  Pcnt        Volume    Pcnt     Occurrence    Outflow
  Storage Unit           1000 m3    Full  Loss  Loss       1000 m3    Full    days hr:min        LPS
  --------------------------------------------------------------------------------------------------
  JK-storage               0.158      54     0     0         0.291     100       0  02:51     600.00
  CC-storage               2.927      19     0     0         3.823      24       0  06:24     400.00
  XR-storage               0.809      87     0     0         0.926     100       0  02:55     379.99
  
  
  ***********************
  Outfall Loading Summary
  ***********************
  
  -----------------------------------------------------------
                         Flow       Avg       Max       Total
                         Freq      Flow      Flow      Volume
  Outfall Node           Pcnt       LPS       LPS    10^6 ltr
  -----------------------------------------------------------
  WSC                   99.99    627.36    943.29      15.329
  3                     95.98    297.74    597.65       6.002
  4                     30.52     85.94    248.89       0.500
  5                      0.00      0.00      0.00       0.000
  -----------------------------------------------------------
  System                56.63   1011.03   1626.74      21.831
  
  
  ********************
  Link Flow Summary
  ********************
  
  -----------------------------------------------------------------------------
                                 Maximum  Time of Max   Maximum    Max/    Max/
                                  |Flow|   Occurrence   |Veloc|    Full    Full
  Link                 Type          LPS  days hr:min     m/sec    Flow   Depth
  -----------------------------------------------------------------------------
  WS02003066WSF200     CONDUIT    680.59     0  03:06      3.01    0.11    0.26
  WS02006287WS02006284 CONDUIT    375.44     0  03:02      1.98    0.17    0.29
  WS02006284WS02006280 CONDUIT    375.54     0  03:02      2.22    0.16    0.27
  WS02006280WS02006229 CONDUIT    375.58     0  03:02      3.58    0.08    0.19
  WS02006229WS02006228 CONDUIT    672.69     0  03:01      1.34    2.23    1.00
  WS02006256WS02006235 CONDUIT    177.52     0  00:01      2.73    1.88    1.00
  WS02006253WS02006251 CONDUIT     82.08     0  03:01      0.46    0.25    1.00
  WS02006252WS02006251 CONDUIT    400.27     0  03:04      3.19    1.47    1.00
  WS02006251WS02006249 CONDUIT    481.66     0  03:01      1.26    1.39    0.98
  WS02006249WS02006248 CONDUIT    330.95     0  04:40      1.07    1.81    0.94
  WS02006248WS02006247 CONDUIT    326.56     0  04:40      1.05    0.71    0.97
  WS02006247WS02006245 CONDUIT    321.91     0  04:40      0.99    2.55    1.00
  WS02006245WS02006243 CONDUIT    317.32     0  04:40      1.06    0.94    1.00
  WS02006243WS02006242 CONDUIT    309.51     0  04:41      0.87    0.66    1.00
  WS02006242WS02006240 CONDUIT    309.23     0  04:41      0.81    1.23    1.00
  WS02006240WS02006239 CONDUIT    305.94     0  04:41      0.80    0.96    1.00
  WS02006239WS02006238 CONDUIT    304.70     0  04:41      0.79    0.97    1.00
  WS02006238WS02006235 CONDUIT    305.36     0  04:41      1.32    0.68    1.00
  WS02006235WS02006234 CONDUIT    393.67     0  06:01      1.03    4.15    1.00
  WS02006234WS02006232 CONDUIT    392.18     0  06:01      1.17    0.79    1.00
  WS02006232WS02006231 CONDUIT    391.91     0  06:01      1.07    0.82    1.00
  WS02006231WS02006230 CONDUIT    390.37     0  06:02      1.31    5.92    1.00
  WS02006230WS02006229 CONDUIT    400.12     0  06:03      1.04    8.90    1.00
  WS02006228WS02006109 CONDUIT    672.65     0  03:01      1.34    2.94    1.00
  WS02006116WS02004401 CONDUIT    684.38     0  03:03      0.87    0.94    0.99
  WS02006115WS02006116 CONDUIT    685.12     0  03:02      0.91    0.88    0.92
  WS02006113WS02006111 CONDUIT    705.33     0  03:02      2.60    0.85    0.56
  WS02006112WS02006115 CONDUIT    687.24     0  03:03      0.89    0.41    0.95
  WS02006111WS02006112 CONDUIT    676.06     0  03:03      1.72    0.32    0.74
  WS02006110WS02006113 CONDUIT    674.92     0  03:01      1.53    0.61    0.82
  WS02006109WS02006110 CONDUIT    673.89     0  03:01      1.34    1.30    1.00
  WS02004411WS02004412 CONDUIT    680.75     0  03:05      1.05    0.97    0.77
  WS02004401WS02004402 CONDUIT    682.26     0  03:04      0.87    0.82    1.00
  WS02004413WS02003067 CONDUIT    680.38     0  03:05      1.27    0.29    0.65
  WS02004412WS02004413 CONDUIT    680.45     0  03:05      0.96    0.46    0.85
  WS02004410WS02004411 CONDUIT    681.07     0  03:05      1.05    0.93    0.77
  WS02004409WS02004410 CONDUIT    681.73     0  03:04      1.05    0.88    0.77
  WS02004407WS02004409 CONDUIT    682.59     0  03:04      1.54    0.24    0.55
  WS02004406WS02004407 CONDUIT    683.08     0  03:04      1.23    0.31    0.67
  WS02004405WS02004406 CONDUIT    682.82     0  03:04      0.87    1.35    1.00
  WS02004404WS02004405 CONDUIT    682.63     0  03:04      0.87    6.69    1.00
  WS02004403WS02004404 CONDUIT    682.38     0  03:04      0.87    0.49    1.00
  WS02004402WS02004403 CONDUIT    682.12     0  03:04      0.87    0.98    1.00
  WS02004139WS02001211 CONDUIT    374.50     0  05:10      0.80    0.47    0.57
  WS02004138WS02004139 CONDUIT    379.33     0  05:10      3.34    0.08    0.43
  WS02003067WS02003066 CONDUIT    680.53     0  03:06      1.38    0.22    0.45
  WS02001213WS02003059 CONDUIT    375.82     0  05:12      0.80    0.62    0.75
  WS02001212WS02001213 CONDUIT    376.61     0  05:11      1.19    0.58    0.44
  WS02001211WS02001212 CONDUIT    378.01     0  05:11      0.74    0.29    0.62
  WS02003072WS02003073 CONDUIT    941.87     0  02:53      1.73    2.03    0.49
  WS02003069WS02003072 CONDUIT    942.27     0  02:52      1.62    0.45    0.51
  WS02003060WS02003069 CONDUIT    942.49     0  02:52      1.87    0.37    0.46
  WS02003059WS02003060 CONDUIT    375.23     0  05:12      0.82    0.25    0.65
  HS02004901HS02004770 CONDUIT     17.71     0  03:01      0.07    0.07    0.39
  HS02004876HS02004881 CONDUIT     71.90     0  03:01      0.92    0.76    0.11
  HS02004870HS02004876 CONDUIT     58.03     0  03:01      0.63    0.04    0.13
  HS02004842HS02004848 CONDUIT     11.42     0  03:01      0.05    0.01    0.30
  HS02004837HS02004842 CONDUIT     11.94     0  03:02      0.41    0.01    0.32
  HS02004830HS02004837 CONDUIT     41.69     0  03:01      0.56    0.04    0.11
  HS02004824HS02004830 CONDUIT     41.67     0  03:01      0.58    0.05    0.10
  HS02004817HS02004824 CONDUIT     81.58     0  03:01      0.25    0.04    0.47
  HS02004770HS02004777 CONDUIT     90.21     0  03:01      0.32    0.16    0.41
  HS02004799HS02004480 CONDUIT    226.97     0  03:01      0.78    0.29    0.42
  HS02004792HS02004799 CONDUIT    206.60     0  03:01      0.88    0.13    0.33
  HS02004788HS02004792 CONDUIT    118.94     0  03:01      1.01    0.08    0.17
  HS02004785HS02004788 CONDUIT     89.52     0  03:02      0.66    0.67    0.19
  HS02004777HS02004785 CONDUIT     89.64     0  03:01      0.38    0.11    0.33
  HS02004480HS02004478 CONDUIT    269.12     0  03:01      1.20    1.13    0.32
  HS02004479HS02004480 CONDUIT     44.17     0  03:02      0.23    0.04    0.40
  HS02004862HS02004870 CONDUIT     44.23     0  03:01      0.64    0.05    0.10
  HS02004848HS02004852 CONDUIT     20.44     0  03:01      0.44    0.02    0.07
  HS02004856HS02004862 CONDUIT     30.56     0  03:01      0.47    0.03    0.09
  HS02004852HS02004856 CONDUIT     20.26     0  03:01      0.24    0.02    0.12
  HS02004802HS02004478 CONDUIT    106.59     0  03:02      0.45    0.09    0.35
  HS02004478WS02006287 CONDUIT    375.27     0  03:01      1.68    0.11    0.25
  HS02004817HS02004807 CONDUIT     82.18     0  03:01      0.19    0.05    0.62
  HS02004807HS02004802 CONDUIT    106.49     0  03:01      0.38    0.20    0.40
  YS02001759YS02001757 CONDUIT    675.65     0  02:56      0.86    0.48    1.00
  YS02001762YS02001759 CONDUIT    342.97     0  02:56      0.44    0.40    1.00
  YS02001765YS02001762 CONDUIT    342.95     0  02:56      0.44    0.32    1.00
  YS02001770YS02001767 CONDUIT    342.36     0  02:56      0.44    1.36    1.00
  YS02001774YS02001770 CONDUIT    247.30     0  03:35      0.31    0.16    1.00
  YS02001779YS02001774 CONDUIT    247.53     0  03:35      0.32    0.12    1.00
  YS02001649YS02001757 CONDUIT    945.31     0  02:51      1.20    0.57    1.00
  YS02001767YS02001765 CONDUIT    342.97     0  02:56      0.44    0.43    1.00
  YS02006561YS02001783 CONDUIT    964.10     0  03:00      2.17    0.50    1.00
  YS02001783YS02001784 CONDUIT    964.03     0  03:00      1.92    1.33    1.00
  YS02001784YS02001785 CONDUIT    965.20     0  03:00      1.92    2.25    1.00
  YS02001788YS02001790 CONDUIT    965.29     0  03:00      2.44    0.71    1.00
  YS02001790YS02001791 CONDUIT    965.45     0  03:00      2.95    1.05    1.00
  YS02001791YS02001793 CONDUIT    965.48     0  03:00      5.82    0.41    1.00
  YS02001910YS02001907 CONDUIT    503.75     0  02:57      0.64    0.28    1.00
  YS02001786YS02001788 CONDUIT    965.19     0  03:00      2.31    1.86    1.00
  YS02001915YS02001910 CONDUIT    503.82     0  02:57      0.64    0.25    1.00
  YS02001918YS02001915 CONDUIT    258.08     0  02:57      0.44    0.14    1.00
  YS02001923YS02001920 CONDUIT    254.55     0  02:57      0.68    0.11    1.00
  YS02001926YS02001923 CONDUIT    280.34     0  02:57      0.79    0.40    0.93
  YS02001929YS02001926 CONDUIT    202.06     0  02:56      0.85    0.10    0.83
  YS02001920YS02001918 CONDUIT    257.48     0  02:57      0.67    0.25    1.00
  YS02001629YS02163301 CONDUIT    221.13     0  02:39      0.28    0.27    1.00
  YS02001619YS02001622 CONDUIT    257.46     0  03:01      0.61    0.38    1.00
  YS02001622YS02001625 CONDUIT    257.29     0  03:01      0.33    0.14    1.00
  YS02001625YS02001629 CONDUIT    209.39     0  02:50      0.27    0.10    1.00
  YS02163301YS02001633 CONDUIT    221.20     0  02:39      0.28    0.21    1.00
  YS02163601YS02164001 CONDUIT    441.43     0  02:50      0.56    0.39    1.00
  YS02164001YS02001641 CONDUIT    441.40     0  02:50      0.56    0.60    1.00
  YS02001641YS02001644 CONDUIT    441.36     0  02:50      0.56    1.43    1.00
  YS02001647YS02001649 CONDUIT    672.70     0  02:50      0.86    0.36    1.00
  YS02006553YS02006556 CONDUIT    666.41     0  03:17      0.85    0.57    1.00
  YS02006556YS02006558 CONDUIT    666.40     0  03:17      0.85    0.53    1.00
  YSB6556YSB1171       CONDUIT     24.81     0  03:03      0.09    0.03    0.67
  YS02001907YS02006553 CONDUIT    666.65     0  03:17      0.74    0.78    1.00
  YS02006558YS02006561 CONDUIT    964.08     0  03:00      3.49    2.13    1.00
  YS02001633YS02163601 CONDUIT    441.40     0  02:50      0.56    0.46    1.00
  YS02001644YS02001647 CONDUIT    672.92     0  02:50      0.86    0.40    1.00
  YS02001745YS02001748 CONDUIT    612.93     0  02:42      1.48    0.24    0.94
  YS02001748YS02001751 CONDUIT    310.36     0  03:01      1.05    0.16    1.00
  YS02001751YS02001754 CONDUIT    310.30     0  03:01      0.88    0.15    1.00
  YS02001754YS02001757 CONDUIT    310.52     0  03:01      0.40    0.13    1.00
  YS02001882YS02001884 CONDUIT     23.70     0  02:51      0.09    0.03    1.00
  YS02001884YS02001887 CONDUIT     28.93     0  02:51      0.05    0.04    1.00
  YS02001890YS02001895 CONDUIT    453.52     0  03:01      0.58    0.21    1.00
  YS02001895YS02001898 CONDUIT    453.40     0  03:01      0.58    0.79    1.00
  YS02001898YS02001901 CONDUIT    453.47     0  03:01      0.58    0.29    1.00
  YS02001901YS02001904 CONDUIT    453.55     0  03:01      0.58    0.70    1.00
  YS02001904YS02001907 CONDUIT    453.63     0  03:01      0.58    0.16    1.00
  YS02001887YS02001890 CONDUIT    453.45     0  03:01      0.58    0.78    1.00
  YS02001652YS02001649 CONDUIT    376.26     0  03:01      0.50    0.19    1.00
  YS02001655YS02001652 CONDUIT    376.24     0  03:01      0.93    0.18    1.00
  YS02001658YS02001655 CONDUIT    376.34     0  03:01      1.21    0.16    1.00
  YS02001661YS02001658 CONDUIT    632.70     0  02:40      1.56    0.25    1.00
  YS02001664YS02001661 CONDUIT    696.33     0  02:54      1.60    0.22    0.71
  YSB1154YSB6556       CONDUIT     24.91     0  03:01      0.19    0.04    0.56
  YSB1174YSB1171       CONDUIT     18.78     0  03:01      0.07    0.03    0.68
  YSB1171HS02004479    CONDUIT     42.82     0  03:02      0.54    0.03    0.53
  HS02004881HS02006253 CONDUIT     79.15     0  03:01      1.60    0.02    0.32
  YS02001793JiankangQianchi CONDUIT    965.49     0  03:00     15.24    0.08    1.00
  YS02001757CaochengTiaoxuchi CONDUIT   1794.48     0  02:51      2.42    0.79    1.00
  WSF200WS02003060     CONDUIT    681.15     0  03:06      2.20    0.15    0.36
  1                    CONDUIT    943.29     0  02:53      3.27    0.33    0.39
  2                    CONDUIT    248.89     0  03:01      6.16    0.60    0.56
  3                    CONDUIT    597.65     0  00:00     10.05    0.95    0.86
  4                    CONDUIT      0.00     0  00:00      0.00    0.00    0.00
  CC-Pump-1            PUMP       200.00     0  02:10              1.00
  CC-Pump-2            PUMP       200.00     0  03:00              1.00
  JK-Pump-1            PUMP       300.00     0  00:00              1.00
  JK-Pump-2            PUMP       300.00     0  00:00              1.00
  XR-Pump-1            PUMP        95.00     0  04:00              1.00
  XR-Pump-2            PUMP        95.00     0  00:00              1.00
  XR-Pump-3            PUMP        95.00     0  00:00              1.00
  XR-Pump-4            PUMP        95.00     0  00:00              1.00
  
  
  ***************************
  Flow Classification Summary
  ***************************
  
  -------------------------------------------------------------------------------------
                      Adjusted    ---------- Fraction of Time in Flow Class ---------- 
                       /Actual         Up    Down  Sub   Sup   Up    Down  Norm  Inlet 
  Conduit               Length    Dry  Dry   Dry   Crit  Crit  Crit  Crit  Ltd   Ctrl  
  -------------------------------------------------------------------------------------
  WS02003066WSF200        1.00   0.06  0.00  0.00  0.00  0.94  0.00  0.00  0.57  0.00
  WS02006287WS02006284    1.00   0.03  0.01  0.00  0.54  0.42  0.00  0.00  0.65  0.00
  WS02006284WS02006280    1.00   0.04  0.00  0.00  0.00  0.00  0.00  0.96  0.00  0.00
  WS02006280WS02006229    1.00   0.04  0.00  0.00  0.00  0.00  0.00  0.96  0.00  0.00
  WS02006229WS02006228    1.00   0.00  0.00  0.00  0.99  0.00  0.00  0.01  0.00  0.00
  WS02006256WS02006235    1.00   0.00  0.00  0.00  1.00  0.00  0.00  0.00  0.00  0.00
  WS02006253WS02006251    1.00   0.02  0.01  0.00  0.97  0.00  0.00  0.00  0.00  0.00
  WS02006252WS02006251    1.00   0.06  0.00  0.00  0.00  0.00  0.93  0.00  0.00  0.00
  WS02006251WS02006249    1.00   0.00  0.00  0.00  1.00  0.00  0.00  0.00  0.41  0.00
  WS02006249WS02006248    1.00   0.00  0.02  0.00  0.75  0.00  0.23  0.00  0.00  0.00
  WS02006248WS02006247    1.00   0.02  0.00  0.00  0.97  0.00  0.00  0.01  0.30  0.00
  WS02006247WS02006245    1.00   0.02  0.00  0.00  0.97  0.00  0.00  0.02  0.00  0.00
  WS02006245WS02006243    1.00   0.01  0.00  0.00  0.95  0.00  0.00  0.03  0.01  0.00
  WS02006243WS02006242    1.00   0.01  0.00  0.00  0.99  0.00  0.00  0.00  0.20  0.00
  WS02006242WS02006240    1.00   0.00  0.00  0.00  1.00  0.00  0.00  0.00  0.00  0.00
  WS02006240WS02006239    1.00   0.00  0.00  0.00  0.97  0.00  0.00  0.03  0.02  0.00
  WS02006239WS02006238    1.00   0.00  0.00  0.00  1.00  0.00  0.00  0.00  0.00  0.00
  WS02006238WS02006235    1.00   0.00  0.00  0.00  1.00  0.00  0.00  0.00  0.00  0.00
  WS02006235WS02006234    1.00   0.00  0.00  0.00  0.96  0.00  0.04  0.00  0.00  0.00
  WS02006234WS02006232    1.00   0.00  0.00  0.00  1.00  0.00  0.00  0.00  0.00  0.00
  WS02006232WS02006231    1.00   0.00  0.00  0.00  0.99  0.00  0.01  0.00  0.00  0.00
  WS02006231WS02006230    1.00   0.00  0.00  0.00  0.63  0.00  0.36  0.00  0.00  0.00
  WS02006230WS02006229    1.00   0.00  0.00  0.00  0.98  0.00  0.00  0.02  0.01  0.00
  WS02006228WS02006109    1.00   0.00  0.00  0.00  1.00  0.00  0.00  0.00  0.00  0.00
  WS02006116WS02004401    1.00   0.02  0.00  0.00  0.98  0.00  0.00  0.00  0.00  0.00
  WS02006115WS02006116    1.00   0.02  0.00  0.00  0.97  0.00  0.00  0.01  0.01  0.00
  WS02006113WS02006111    1.00   0.02  0.00  0.00  0.00  0.98  0.00  0.00  0.10  0.00
  WS02006112WS02006115    1.00   0.02  0.00  0.00  0.98  0.00  0.00  0.00  0.00  0.00
  WS02006111WS02006112    1.00   0.02  0.00  0.00  0.98  0.00  0.00  0.00  0.90  0.00
  WS02006110WS02006113    1.00   0.01  0.00  0.00  0.98  0.00  0.00  0.00  0.00  0.00
  WS02006109WS02006110    1.00   0.00  0.01  0.00  0.98  0.00  0.00  0.00  0.00  0.00
  WS02004411WS02004412    1.00   0.04  0.00  0.00  0.96  0.00  0.00  0.00  0.00  0.00
  WS02004401WS02004402    1.00   0.02  0.00  0.00  0.98  0.00  0.00  0.00  0.00  0.00
  WS02004413WS02003067    1.00   0.05  0.01  0.00  0.00  0.00  0.94  0.00  0.00  0.00
  WS02004412WS02004413    1.00   0.04  0.00  0.00  0.95  0.00  0.00  0.00  0.01  0.00
  WS02004410WS02004411    1.00   0.04  0.00  0.00  0.96  0.00  0.00  0.00  0.00  0.00
  WS02004409WS02004410    1.00   0.04  0.00  0.00  0.96  0.00  0.00  0.00  0.00  0.00
  WS02004407WS02004409    1.00   0.04  0.00  0.00  0.95  0.00  0.00  0.00  0.80  0.00
  WS02004406WS02004407    1.00   0.00  0.04  0.00  0.96  0.00  0.00  0.00  0.00  0.00
  WS02004405WS02004406    1.00   0.00  0.00  0.00  1.00  0.00  0.00  0.00  0.02  0.00
  WS02004404WS02004405    1.00   0.00  0.00  0.00  1.00  0.00  0.00  0.00  0.00  0.00
  WS02004403WS02004404    1.00   0.00  0.02  0.00  0.98  0.00  0.00  0.00  0.02  0.00
  WS02004402WS02004403    1.00   0.02  0.00  0.00  0.98  0.00  0.00  0.00  0.00  0.00
  WS02004139WS02001211    1.00   0.00  0.00  0.00  0.99  0.00  0.01  0.00  0.00  0.00
  WS02004138WS02004139    1.00   0.00  0.00  0.00  0.99  0.01  0.00  0.00  1.00  0.00
  WS02003067WS02003066    1.00   0.06  0.01  0.00  0.94  0.00  0.00  0.00  0.00  0.00
  WS02001213WS02003059    1.00   0.00  0.00  0.00  0.99  0.00  0.00  0.00  0.00  0.00
  WS02001212WS02001213    1.00   0.00  0.00  0.00  0.76  0.00  0.23  0.00  0.00  0.00
  WS02001211WS02001212    1.00   0.00  0.00  0.00  1.00  0.00  0.00  0.00  0.00  0.00
  WS02003072WS02003073    1.00   0.00  0.00  0.00  0.00  0.00  0.00  1.00  0.00  0.00
  WS02003069WS02003072    1.00   0.00  0.00  0.00  0.99  0.01  0.00  0.00  0.36  0.00
  WS02003060WS02003069    1.00   0.00  0.00  0.00  0.99  0.01  0.00  0.00  0.03  0.00
  WS02003059WS02003060    1.00   0.00  0.00  0.00  0.99  0.01  0.00  0.00  0.01  0.00
  HS02004901HS02004770    1.00   0.03  0.00  0.00  0.97  0.00  0.00  0.00  0.00  0.00
  HS02004876HS02004881    1.00   0.02  0.00  0.00  0.89  0.09  0.00  0.00  0.00  0.00
  HS02004870HS02004876    1.00   0.01  0.00  0.00  0.99  0.00  0.00  0.00  0.95  0.00
  HS02004842HS02004848    1.00   0.00  0.03  0.00  0.97  0.00  0.00  0.00  0.58  0.00
  HS02004837HS02004842    1.00   0.00  0.00  0.00  0.99  0.01  0.00  0.00  0.11  0.00
  HS02004830HS02004837    1.00   0.00  0.00  0.00  1.00  0.00  0.00  0.00  0.99  0.00
  HS02004824HS02004830    1.00   0.00  0.00  0.00  1.00  0.00  0.00  0.00  0.00  0.00
  HS02004817HS02004824    1.00   0.00  0.00  0.00  1.00  0.00  0.00  0.00  1.00  0.00
  HS02004770HS02004777    1.00   0.00  0.03  0.00  0.97  0.00  0.00  0.00  0.03  0.00
  HS02004799HS02004480    1.00   0.00  0.02  0.00  0.96  0.00  0.02  0.00  0.00  0.00
  HS02004792HS02004799    1.00   0.00  0.00  0.00  0.99  0.01  0.00  0.00  0.98  0.00
  HS02004788HS02004792    1.00   0.00  0.00  0.00  0.99  0.01  0.00  0.00  0.98  0.00
  HS02004785HS02004788    1.00   0.00  0.00  0.00  1.00  0.00  0.00  0.00  0.00  0.00
  HS02004777HS02004785    1.00   0.00  0.00  0.00  1.00  0.00  0.00  0.00  0.14  0.00
  HS02004480HS02004478    1.00   0.03  0.00  0.00  0.62  0.00  0.00  0.35  0.00  0.00
  HS02004479HS02004480    1.00   0.02  0.00  0.00  0.98  0.00  0.00  0.00  0.13  0.00
  HS02004862HS02004870    1.00   0.00  0.00  0.00  1.00  0.00  0.00  0.00  0.05  0.00
  HS02004848HS02004852    1.00   0.03  0.00  0.00  0.97  0.00  0.00  0.00  0.61  0.00
  HS02004856HS02004862    1.00   0.00  0.04  0.00  0.96  0.00  0.00  0.00  0.80  0.00
  HS02004852HS02004856    1.00   0.03  0.00  0.00  0.96  0.00  0.00  0.00  0.85  0.00
  HS02004802HS02004478    1.00   0.03  0.00  0.00  0.96  0.00  0.00  0.00  0.03  0.00
  HS02004478WS02006287    1.00   0.04  0.00  0.00  0.69  0.27  0.00  0.00  0.66  0.00
  HS02004817HS02004807    1.00   0.00  0.03  0.00  0.97  0.00  0.00  0.00  0.01  0.00
  HS02004807HS02004802    1.00   0.03  0.00  0.00  0.96  0.00  0.00  0.00  0.00  0.00
  YS02001759YS02001757    1.00   0.00  0.00  0.00  1.00  0.00  0.00  0.00  0.16  0.00
  YS02001762YS02001759    1.00   0.00  0.00  0.00  1.00  0.00  0.00  0.00  0.03  0.00
  YS02001765YS02001762    1.00   0.00  0.00  0.00  1.00  0.00  0.00  0.00  0.16  0.00
  YS02001770YS02001767    1.00   0.00  0.00  0.00  1.00  0.00  0.00  0.00  0.00  0.00
  YS02001774YS02001770    1.00   0.00  0.03  0.00  0.96  0.00  0.00  0.00  0.04  0.00
  YS02001779YS02001774    1.00   0.00  0.00  0.00  1.00  0.00  0.00  0.00  0.21  0.00
  YS02001649YS02001757    1.00   0.00  0.00  0.00  1.00  0.00  0.00  0.00  0.17  0.00
  YS02001767YS02001765    1.00   0.00  0.00  0.00  1.00  0.00  0.00  0.00  0.00  0.00
  YS02006561YS02001783    1.00   0.05  0.00  0.00  0.46  0.49  0.00  0.00  0.56  0.00
  YS02001783YS02001784    1.00   0.00  0.05  0.00  0.95  0.00  0.00  0.00  0.01  0.00
  YS02001784YS02001785    1.00   0.00  0.00  0.00  1.00  0.00  0.00  0.00  0.20  0.00
  YS02001788YS02001790    1.00   0.00  0.00  0.00  0.50  0.50  0.00  0.00  0.49  0.00
  YS02001790YS02001791    1.00   0.00  0.00  0.00  0.48  0.52  0.00  0.00  0.37  0.00
  YS02001791YS02001793    1.00   0.00  0.00  0.00  0.49  0.51  0.00  0.00  0.02  0.00
  YS02001910YS02001907    1.00   0.00  0.00  0.00  0.98  0.00  0.00  0.02  0.13  0.00
  YS02001786YS02001788    1.00   0.00  0.00  0.00  0.48  0.52  0.00  0.00  0.00  0.00
  YS02001915YS02001910    1.00   0.00  0.00  0.00  0.99  0.01  0.00  0.00  0.18  0.00
  YS02001918YS02001915    1.00   0.00  0.01  0.00  0.99  0.00  0.00  0.00  0.58  0.00
  YS02001923YS02001920    1.00   0.00  0.00  0.00  1.00  0.00  0.00  0.00  0.86  0.00
  YS02001926YS02001923    1.00   0.00  0.03  0.00  0.15  0.00  0.83  0.00  0.00  0.00
  YS02001929YS02001926    1.00   0.00  0.03  0.00  0.97  0.00  0.00  0.00  0.79  0.00
  YS02001920YS02001918    1.00   0.00  0.01  0.00  0.99  0.00  0.00  0.00  0.00  0.00
  YS02001629YS02163301    1.00   0.04  0.00  0.00  0.96  0.00  0.00  0.00  0.00  0.00
  YS02001619YS02001622    1.00   0.03  0.00  0.00  0.97  0.00  0.00  0.00  0.00  0.00
  YS02001622YS02001625    1.00   0.03  0.00  0.00  0.97  0.00  0.00  0.00  0.07  0.00
  YS02001625YS02001629    1.00   0.03  0.01  0.00  0.93  0.00  0.02  0.00  0.00  0.00
  YS02163301YS02001633    1.00   0.00  0.04  0.00  0.96  0.00  0.00  0.00  0.00  0.00
  YS02163601YS02164001    1.00   0.00  0.03  0.00  0.97  0.00  0.00  0.00  0.00  0.00
  YS02164001YS02001641    1.00   0.01  0.02  0.00  0.97  0.00  0.00  0.00  0.06  0.00
  YS02001641YS02001644    1.00   0.00  0.01  0.00  0.99  0.00  0.00  0.00  0.00  0.00
  YS02001647YS02001649    1.00   0.00  0.04  0.00  0.95  0.00  0.00  0.00  0.01  0.00
  YS02006553YS02006556    1.00   0.02  0.00  0.00  0.98  0.00  0.00  0.00  0.03  0.00
  YS02006556YS02006558    1.00   0.00  0.00  0.00  1.00  0.00  0.00  0.00  0.00  0.00
  YSB6556YSB1171          1.00   0.02  0.01  0.00  0.97  0.00  0.00  0.00  0.00  0.00
  YS02001907YS02006553    1.00   0.00  0.01  0.00  0.98  0.00  0.00  0.00  0.00  0.00
  YS02006558YS02006561    1.00   0.05  0.00  0.00  0.17  0.78  0.00  0.00  0.47  0.00
  YS02001633YS02163601    1.00   0.00  0.01  0.00  0.99  0.00  0.00  0.00  0.16  0.00
  YS02001644YS02001647    1.00   0.00  0.05  0.00  0.95  0.00  0.00  0.00  0.00  0.00
  YS02001745YS02001748    1.00   0.00  0.00  0.00  0.89  0.01  0.00  0.10  0.05  0.00
  YS02001748YS02001751    1.00   0.00  0.00  0.00  0.97  0.03  0.00  0.00  0.15  0.00
  YS02001751YS02001754    1.00   0.00  0.00  0.00  0.95  0.00  0.00  0.05  0.02  0.00
  YS02001754YS02001757    1.00   0.00  0.00  0.00  0.99  0.01  0.00  0.00  0.20  0.00
  YS02001882YS02001884    1.00   0.04  0.00  0.00  0.96  0.00  0.00  0.00  0.00  0.00
  YS02001884YS02001887    1.00   0.02  0.01  0.00  0.97  0.00  0.00  0.00  0.00  0.00
  YS02001890YS02001895    1.00   0.00  0.04  0.00  0.96  0.00  0.00  0.00  0.00  0.00
  YS02001895YS02001898    1.00   0.04  0.00  0.00  0.95  0.00  0.01  0.00  0.00  0.00
  YS02001898YS02001901    1.00   0.04  0.00  0.00  0.96  0.00  0.00  0.00  0.02  0.00
  YS02001901YS02001904    1.00   0.04  0.00  0.00  0.96  0.00  0.00  0.00  0.00  0.00
  YS02001904YS02001907    1.00   0.00  0.04  0.00  0.96  0.00  0.00  0.00  0.00  0.00
  YS02001887YS02001890    1.00   0.00  0.00  0.00  0.98  0.00  0.01  0.00  0.00  0.00
  YS02001652YS02001649    1.00   0.00  0.00  0.00  1.00  0.00  0.00  0.00  0.18  0.00
  YS02001655YS02001652    1.00   0.00  0.00  0.00  0.95  0.00  0.00  0.05  0.02  0.00
  YS02001658YS02001655    1.00   0.00  0.04  0.00  0.93  0.03  0.00  0.00  0.11  0.00
  YS02001661YS02001658    1.00   0.04  0.00  0.00  0.89  0.08  0.00  0.00  0.06  0.00
  YS02001664YS02001661    1.00   0.03  0.00  0.00  0.85  0.11  0.00  0.00  0.22  0.00
  YSB1154YSB6556          1.00   0.03  0.00  0.00  0.97  0.00  0.00  0.00  0.02  0.00
  YSB1174YSB1171          1.00   0.02  0.01  0.00  0.97  0.00  0.00  0.00  0.00  0.00
  YSB1171HS02004479       1.00   0.02  0.00  0.00  0.98  0.00  0.00  0.00  0.11  0.00
  HS02004881HS02006253    1.00   0.02  0.00  0.00  0.73  0.00  0.00  0.25  0.55  0.00
  YS02001793JiankangQianchi    1.00   0.00  0.00  0.00  0.61  0.39  0.00  0.00  0.08  0.00
  YS02001757CaochengTiaoxuchi    1.00   0.00  0.06  0.00  0.92  0.02  0.00  0.00  0.00  0.00
  WSF200WS02003060        1.00   0.00  0.06  0.00  0.78  0.16  0.00  0.00  0.22  0.00
  1                       1.00   0.00  0.00  0.00  0.00  1.00  0.00  0.00  0.21  0.00
  2                       1.00   0.69  0.00  0.00  0.00  0.31  0.00  0.00  0.05  0.00
  3                       1.00   0.04  0.00  0.00  0.00  0.96  0.00  0.00  0.00  0.00
  4                       1.00   1.00  0.00  0.00  0.00  0.00  0.00  0.00  0.00  0.00
  
  
  *************************
  Conduit Surcharge Summary
  *************************
  
  ----------------------------------------------------------------------------
                                                           Hours        Hours 
                         --------- Hours Full --------   Above Full   Capacity
  Conduit                Both Ends  Upstream  Dnstream   Normal Flow   Limited
  ----------------------------------------------------------------------------
  WS02006229WS02006228        1.96      2.11      1.96      4.42         1.96
  WS02006256WS02006235        6.06      6.06      7.83      4.56         0.01
  WS02006253WS02006251        0.09      0.09      0.24      0.01         0.01
  WS02006252WS02006251        0.53      0.53      1.19      1.02         0.01
  WS02006251WS02006249        0.01      0.13      0.01      0.70         0.01
  WS02006249WS02006248        0.01      0.01      0.01      4.25         0.01
  WS02006248WS02006247        0.01      0.01      0.19      0.01         0.01
  WS02006247WS02006245        0.17      0.28      0.17      4.32         0.17
  WS02006245WS02006243        0.23      0.23      0.51      0.01         0.01
  WS02006243WS02006242        0.59      0.59      1.33      0.01         0.01
  WS02006242WS02006240        1.06      1.06      1.54      0.81         0.01
  WS02006240WS02006239        1.10      1.10      1.16      0.01         0.01
  WS02006239WS02006238        1.54      1.54      1.65      0.01         0.01
  WS02006238WS02006235        1.58      1.58      1.82      0.01         0.01
  WS02006235WS02006234        1.17      1.17      1.48      6.09         0.01
  WS02006234WS02006232        1.24      1.24      1.96      0.01         0.01
  WS02006232WS02006231        0.98      0.98      1.96      0.01         0.01
  WS02006231WS02006230        0.76      0.76      1.02      6.05         0.01
  WS02006230WS02006229        2.81      4.33      2.81      6.12         2.81
  WS02006228WS02006109        2.04      2.42      2.04      4.56         2.04
  WS02006112WS02006115        0.01      0.01      1.28      0.01         0.01
  WS02006111WS02006112        0.01      0.01      4.43      0.01         0.01
  WS02006110WS02006113        0.01      0.01      2.25      0.01         0.01
  WS02006109WS02006110        1.18      1.18      2.42      1.18         0.01
  WS02004401WS02004402        0.01      0.01      0.08      0.01         0.01
  WS02004406WS02004407        0.01      0.01      0.51      0.01         0.01
  WS02004405WS02004406        0.51      0.68      0.51      1.23         0.51
  WS02004404WS02004405        0.68      0.79      0.68      6.00         0.68
  WS02004403WS02004404        0.11      0.11      0.79      0.01         0.01
  WS02004402WS02004403        0.08      0.08      0.11      0.01         0.01
  WS02003072WS02003073        0.01      0.01      0.01      4.48         0.01
  HS02004480HS02004478        0.01      0.01      0.01      0.25         0.01
  YS02001759YS02001757        5.66      5.66      5.74      0.01         0.01
  YS02001762YS02001759        5.64      5.64      5.66      0.01         0.01
  YS02001765YS02001762        5.61      5.61      5.64      0.01         0.01
  YS02001770YS02001767        5.58      5.58      5.58      0.34         0.79
  YS02001774YS02001770        5.57      5.57      5.63      0.01         0.01
  YS02001779YS02001774        5.38      5.38      5.63      0.01         0.01
  YS02001649YS02001757        5.64      5.64      5.74      0.01         0.01
  YS02001767YS02001765        5.58      5.58      5.61      0.01         0.01
  YS02006561YS02001783        0.60      0.60      1.11      0.01         0.01
  YS02001783YS02001784        1.08      1.11      1.15      1.16         0.90
  YS02001784YS02001785        1.06      1.15      1.06      2.07         1.06
  YS02001788YS02001790        1.05      1.05      2.44      0.01         0.01
  YS02001790YS02001791        2.44      2.44      2.57      0.44         0.44
  YS02001791YS02001793        2.57      2.57      2.85      0.01         0.01
  YS02001910YS02001907        0.96      0.96      1.50      0.01         0.01
  YS02001786YS02001788        1.05      1.06      1.05      1.69         1.05
  YS02001915YS02001910        0.72      0.72      0.96      0.01         0.01
  YS02001918YS02001915        0.47      0.47      0.72      0.01         0.01
  YS02001923YS02001920        0.23      0.23      0.51      0.01         0.01
  YS02001920YS02001918        0.47      0.47      0.51      0.01         0.01
  YS02001629YS02163301        5.56      5.56      5.58      0.01         0.01
  YS02001619YS02001622        5.20      5.20      5.25      0.01         0.01
  YS02001622YS02001625        5.25      5.25      5.43      0.01         0.01
  YS02001625YS02001629        5.21      5.21      5.43      0.01         0.01
  YS02163301YS02001633        5.58      5.58      5.61      0.01         0.01
  YS02163601YS02164001        5.61      5.61      5.64      0.01         0.01
  YS02164001YS02001641        5.61      5.61      5.62      0.01         0.02
  YS02001641YS02001644        5.62      5.62      5.62      1.22         1.29
  YS02001647YS02001649        5.42      5.42      5.64      0.01         0.01
  YS02006553YS02006556        1.19      1.19      1.55      0.01         0.01
  YS02006556YS02006558        1.35      1.35      1.64      0.01         0.01
  YS02001907YS02006553        2.09      2.09      2.30      0.01         0.01
  YS02006558YS02006561        0.79      1.15      0.79      1.94         0.79
  YS02001633YS02163601        5.60      5.60      5.64      0.01         0.01
  YS02001644YS02001647        5.42      5.42      5.62      0.01         0.01
  YS02001745YS02001748        0.01      0.01      5.04      0.01         0.01
  YS02001748YS02001751        5.09      5.09      5.17      0.01         0.01
  YS02001751YS02001754        5.17      5.17      5.39      0.01         0.01
  YS02001754YS02001757        5.42      5.42      5.74      0.01         0.01
  YS02001882YS02001884        0.72      0.72      0.76      0.01         0.01
  YS02001884YS02001887        0.83      0.83      0.86      0.01         0.01
  YS02001890YS02001895        0.70      0.70      0.98      0.01         0.01
  YS02001895YS02001898        0.68      0.68      0.70      0.01         0.01
  YS02001898YS02001901        0.70      0.70      0.82      0.01         0.01
  YS02001901YS02001904        0.79      0.79      0.82      0.01         0.01
  YS02001904YS02001907        0.79      0.79      1.58      0.01         0.01
  YS02001887YS02001890        0.90      0.90      0.94      0.01         0.01
  YS02001652YS02001649        5.42      5.42      5.64      0.01         0.01
  YS02001655YS02001652        5.21      5.21      5.41      0.01         0.01
  YS02001658YS02001655        5.07      5.07      5.21      0.01         0.01
  YS02001661YS02001658        0.21      0.21      5.07      0.01         0.01
  YS02001664YS02001661        0.01      0.01      1.19      0.01         0.01
  YS02001793JiankangQianchi        2.77      2.77      3.56      0.01         0.01
  YS02001757CaochengTiaoxuchi        4.87      4.87      5.74      0.01         0.01
  3                           0.01      0.01      0.01      0.01         0.01
  
  
  ***************
  Pumping Summary
  ***************
  
  ---------------------------------------------------------------------------------------------------------
                                                  Min       Avg       Max     Total     Power    % Time Off
                        Percent   Number of      Flow      Flow      Flow    Volume     Usage    Pump Curve
  Pump                 Utilized   Start-Ups       LPS       LPS       LPS  10^6 ltr     Kw-hr    Low   High
  ---------------------------------------------------------------------------------------------------------
  CC-Pump-1               56.66           3      0.00    182.93    200.00     2.893      4.17    0.0   14.3
  CC-Pump-2               26.88           6      0.00    109.07    200.00     0.820      1.71    0.0   22.2
  JK-Pump-1               80.85           4      0.00    192.06    300.00     3.182     37.84    0.0    0.0
  JK-Pump-2              100.00           1      0.00    236.80    300.00     5.231     51.32    0.0    0.0
  XR-Pump-1               40.42           3      0.00     75.82     95.00     0.855      5.38    0.0    0.0
  XR-Pump-2               57.44           5      0.00     71.65     95.00     1.226     15.91    0.0    0.0
  XR-Pump-3               97.87           3      0.00     85.37     95.00     2.394     21.55    0.0    0.0
  XR-Pump-4               97.87           3      0.00     88.89     95.00     2.451     21.52    0.0    0.0
  

  Analysis begun on:  Thu Dec 23 15:46:29 2021
  Analysis ended on:  Thu Dec 23 15:46:33 2021
  Total elapsed time: 00:00:04