
  EPA STORM WATER MANAGEMENT MODEL - VERSION 5.1 (Build 5.3.0.dev0)
  --------------------------------------------------------------

  WARNING 04: minimum elevation drop used for Conduit WS02004404WS02004405
  WARNING 03: negative offset ignored for Link YS02001904YS02001907
  
  *********************************************************
  NOTE: The summary statistics displayed in this report are
  based on results found at every computational time step,  
  not just on results from each reporting time step.
  *********************************************************
  
  ****************
  Analysis Options
  ****************
  Flow Units ............... LPS
  Process Models:
    Rainfall/Runoff ........ YES
    RDII ................... NO
    Snowmelt ............... NO
    Groundwater ............ NO
    Flow Routing ........... YES
    Ponding Allowed ........ NO
    Water Quality .......... NO
  Infiltration Method ...... HORTON
  Flow Routing Method ...... DYNWAVE
  Surcharge Method ......... EXTRAN
  Starting Date ............ 08/28/2015 08:00:00
  Ending Date .............. 08/28/2015 15:50:00
  Antecedent Dry Days ...... 8.0
  Report Time Step ......... 00:01:00
  Wet Time Step ............ 00:01:00
  Dry Time Step ............ 00:01:00
  Routing Time Step ........ 5.00 sec
  Variable Time Step ....... YES
  Maximum Trials ........... 8
  Number of Threads ........ 4
  Head Tolerance ........... 0.001500 m
  
  
  **************************        Volume         Depth
  Runoff Quantity Continuity     hectare-m            mm
  **************************     ---------       -------
  Total Precipitation ......         5.556        12.164
  Evaporation Loss .........         0.000         0.000
  Infiltration Loss ........         1.427         3.124
  Surface Runoff ...........         3.072         6.726
  Final Storage ............         1.058         2.316
  Continuity Error (%) .....        -0.016
  
  
  **************************        Volume        Volume
  Flow Routing Continuity        hectare-m      10^6 ltr
  **************************     ---------     ---------
  Dry Weather Inflow .......         0.616         6.165
  Wet Weather Inflow .......         3.071        30.709
  Groundwater Inflow .......         0.000         0.000
  RDII Inflow ..............         0.000         0.000
  External Inflow ..........         0.102         1.024
  External Outflow .........         2.135        21.346
  Flooding Loss ............         1.188        11.881
  Evaporation Loss .........         0.000         0.000
  Exfiltration Loss ........         0.000         0.000
  Initial Stored Volume ....         0.076         0.761
  Final Stored Volume ......         0.637         6.367
  Continuity Error (%) .....        -2.420
  
  
  *************************
  Highest Continuity Errors
  *************************
  Node HS02004842 (16.24%)
  Node YS02001884 (12.03%)
  Node JK-storage (-10.53%)
  Node YSB1171 (3.12%)
  Node HS02004817 (2.99%)
  
  
  ***************************
  Time-Step Critical Elements
  ***************************
  Link 3 (62.40%)
  Link WS02006252WS02006251 (31.40%)
  Link WS02006280WS02006229 (1.50%)
  
  
  ********************************
  Highest Flow Instability Indexes
  ********************************
  Link YS02163601YS02164001 (40)
  Link YS02163301YS02001633 (39)
  Link WS02006113WS02006111 (39)
  Link YS02001629YS02163301 (39)
  Link YS02001619YS02001622 (38)
  
  
  *************************
  Routing Time Step Summary
  *************************
  Minimum Time Step           :     0.50 sec
  Average Time Step           :     0.81 sec
  Maximum Time Step           :     5.00 sec
  Percent in Steady State     :    -0.00
  Average Iterations per Step :     4.45
  Percent Not Converging      :    19.22
  
  
  ***************************
  Subcatchment Runoff Summary
  ***************************
  
  ------------------------------------------------------------------------------------------------------------------------------
                            Total      Total      Total      Total     Imperv       Perv      Total       Total     Peak  Runoff
                           Precip      Runon       Evap      Infil     Runoff     Runoff     Runoff      Runoff   Runoff   Coeff
  Subcatchment                 mm         mm         mm         mm         mm         mm         mm    10^6 ltr      LPS
  ------------------------------------------------------------------------------------------------------------------------------
  sub0                      12.16       0.00       0.00       0.85      10.05       0.00      10.05        0.01     1.91   0.826
  sub1                      12.16       0.00       0.00       1.34       9.56       0.00       9.56        0.06    14.15   0.786
  sub2                      12.16       0.00       0.00       4.50       6.75       0.00       6.75        0.06    13.75   0.555
  sub3                      12.16       0.00       0.00       4.50       6.71       0.00       6.71        0.15    32.07   0.552
  sub4                      12.16       0.00       0.00       1.34       9.40       0.00       9.40        0.20    40.20   0.773
  sub5                      12.16       0.00       0.00       0.85       9.99       0.00       9.99        0.11    25.19   0.822
  sub7                      12.16       0.00       0.00       1.09       9.81       0.00       9.81        0.03     7.55   0.807
  sub8                      12.16       0.00       0.00       1.09       9.80       0.00       9.80        0.06    14.17   0.806
  sub9                      12.16       0.00       0.00       1.09       9.80       0.00       9.80        0.05    10.64   0.806
  sub10                     12.16       0.00       0.00       0.97       9.89       0.00       9.89        0.11    24.40   0.813
  sub11                     12.16       0.00       0.00       0.97       9.91       0.00       9.91        0.12    26.15   0.815
  sub12                     12.16       0.00       0.00       1.58       9.39       0.00       9.39        0.08    19.06   0.772
  sub14                     12.16       0.00       0.00       1.09       9.80       0.00       9.80        0.09    21.02   0.805
  sub15                     12.16       0.00       0.00       3.65       7.53       0.00       7.53        0.13    29.11   0.619
  sub16                     12.16       0.00       0.00       4.01       7.23       0.00       7.23        0.08    17.47   0.594
  sub17                     12.16       0.00       0.00       3.89       7.34       0.00       7.34        0.06    14.47   0.603
  sub22                     12.16       0.00       0.00       5.23       6.14       0.00       6.14        0.39    88.27   0.505
  sub23                     12.16       0.00       0.00       4.50       6.79       0.00       6.79        0.32    73.89   0.558
  sub60                     12.16       0.00       0.00       1.46       7.71       0.00       7.71        2.34   297.17   0.634
  sub61                     12.16       0.00       0.00       2.07       7.87       0.00       7.87        2.43   359.80   0.647
  sub62                     12.16       0.00       0.00       0.97       8.55       0.00       8.55        2.63   372.87   0.703
  sub63                     12.16       0.00       0.00       3.53       6.89       0.00       6.89        2.09   327.80   0.567
  sub64                     12.16       0.00       0.00       1.82       7.40       0.00       7.40        2.25   282.66   0.608
  sub65                     12.16       0.00       0.00       1.58       7.52       0.00       7.52        2.31   287.20   0.618
  sub66                     12.16       0.00       0.00       3.53       6.36       0.00       6.36        1.95   257.27   0.523
  sub67                     12.16       0.00       0.00       0.97       9.05       0.00       9.05        2.79   452.90   0.744
  sub68                     12.16       0.00       0.00       1.70       8.28       0.00       8.28        2.55   391.99   0.681
  sub69                     12.16       0.00       0.00       1.82       8.61       0.00       8.61        2.01   355.79   0.708
  sub70                     12.16       8.79       0.00       7.03      11.43       0.10      11.53        2.64   335.00   0.550
  sub71                     12.16       0.00       0.00       0.97       8.31       0.00       8.31        1.96   263.63   0.683
  sub72                     12.16       0.00       0.00       0.85       6.56       0.00       6.56        1.34   129.40   0.540
  sub73                     12.16      11.23       0.00       7.88      12.47       0.08      12.54        2.95   300.52   0.536
  sub74                     12.16       0.00       0.00       9.12       2.57       0.00       2.57        1.03   189.59   0.211
  
  
  ******************
  Node Depth Summary
  ******************
  
  ---------------------------------------------------------------------------------
                                 Average  Maximum  Maximum  Time of Max    Reported
                                   Depth    Depth      HGL   Occurrence   Max Depth
  Node                 Type       Meters   Meters   Meters  days hr:min      Meters
  ---------------------------------------------------------------------------------
  WS02001211           JUNCTION     0.68     0.74     5.57     0  03:00        0.74
  WS02001212           JUNCTION     0.40     0.47     5.53     0  03:00        0.47
  WS02001213           JUNCTION     0.64     0.73     5.50     0  03:01        0.73
  WS02003069           JUNCTION     0.46     0.59     5.18     0  03:02        0.59
  WS02003072           JUNCTION     0.52     0.65     5.02     0  03:03        0.65
  WS02003073           JUNCTION     0.31     0.40     4.46     0  03:03        0.40
  WS02003060           JUNCTION     0.41     0.52     5.45     0  03:02        0.52
  WS02003066           JUNCTION     0.24     0.33     5.88     0  03:04        0.33
  WS02003059           JUNCTION     0.69     0.79     5.48     0  03:01        0.79
  WS02003067           JUNCTION     0.58     0.75     6.07     0  03:04        0.75
  WS02004401           JUNCTION     0.69     0.98     6.98     0  03:02        0.98
  WS02004402           JUNCTION     0.72     1.00     6.96     0  03:02        0.99
  WS02004403           JUNCTION     0.74     1.00     6.93     0  03:02        1.00
  WS02004404           JUNCTION     0.82     1.06     6.91     0  03:02        1.06
  WS02004406           JUNCTION     0.82     1.03     6.86     0  03:02        1.03
  WS02004409           JUNCTION     0.51     0.75     6.52     0  03:04        0.75
  WS02004410           JUNCTION     0.53     0.76     6.48     0  03:05        0.76
  WS02004411           JUNCTION     0.54     0.77     6.45     0  03:03        0.76
  WS02004412           JUNCTION     0.56     0.76     6.40     0  03:03        0.76
  WS02004413           JUNCTION     0.71     0.92     6.39     0  03:04        0.92
  WS02004405           JUNCTION     0.81     1.05     6.90     0  03:02        1.04
  WS02006109           JUNCTION     0.78     1.11     7.73     0  03:00        1.09
  WS02006110           JUNCTION     0.76     1.02     7.61     0  03:00        1.00
  WS02006111           JUNCTION     0.23     0.36     7.06     0  03:03        0.35
  WS02006112           JUNCTION     0.87     1.19     7.08     0  03:01        1.19
  WS02006113           JUNCTION     0.35     0.51     7.40     0  03:01        0.51
  WS02006115           JUNCTION     0.59     0.89     7.03     0  03:02        0.89
  WS02006116           JUNCTION     0.67     0.97     7.01     0  03:01        0.97
  WS02006230           JUNCTION     0.75     1.17     7.91     0  03:01        1.17
  WS02006231           JUNCTION     0.50     0.82     7.95     0  03:00        0.82
  WS02006232           JUNCTION     0.63     0.95     7.99     0  02:59        0.94
  WS02006234           JUNCTION     0.54     0.86     8.01     0  03:00        0.86
  WS02006235           JUNCTION     0.57     0.88     8.05     0  03:00        0.88
  WS02006238           JUNCTION     0.60     0.90     8.05     0  02:59        0.90
  WS02006240           JUNCTION     0.48     0.79     8.08     0  03:00        0.79
  WS02006242           JUNCTION     0.52     0.83     8.10     0  03:00        0.83
  WS02006243           JUNCTION     0.40     0.71     8.13     0  03:00        0.71
  WS02006245           JUNCTION     0.37     0.66     8.15     0  03:00        0.66
  WS02006247           JUNCTION     0.38     0.66     8.16     0  03:00        0.66
  WS02006248           JUNCTION     0.32     0.58     8.17     0  03:00        0.58
  WS02006249           JUNCTION     0.35     0.58     8.18     0  03:00        0.58
  WS02006239           JUNCTION     0.55     0.85     8.06     0  03:00        0.85
  WS02006251           JUNCTION     0.33     0.56     8.23     0  03:00        0.56
  WS02006252           JUNCTION     0.27     0.35     8.59     0  06:20        0.35
  WS02006253           JUNCTION     0.36     0.58     8.23     0  03:00        0.58
  WS02006256           JUNCTION     1.10     2.35     9.28     0  00:00        1.22
  WS02004138           JUNCTION     0.16     0.17     7.42     0  00:00        0.17
  WS02004407           JUNCTION     0.23     0.33     6.64     0  03:02        0.33
  WS02006228           JUNCTION     0.78     1.17     7.82     0  03:00        1.16
  WS02006229           JUNCTION     0.76     1.18     7.87     0  03:01        1.18
  WS02006280           JUNCTION     0.08     0.19     8.46     0  03:02        0.19
  WS02006284           JUNCTION     0.38     0.55     8.95     0  03:02        0.55
  WS02006287           JUNCTION     0.11     0.28     9.24     0  03:01        0.28
  WSF200               JUNCTION     0.23     0.35     5.59     0  03:03        0.35
  HS02004901           JUNCTION     0.14     0.28    10.10     0  03:01        0.28
  HS02004881           JUNCTION     0.01     0.04     9.07     0  03:01        0.04
  HS02004876           JUNCTION     0.05     0.12     9.15     0  03:01        0.12
  HS02004870           JUNCTION     0.02     0.06     9.35     0  03:01        0.06
  HS02004862           JUNCTION     0.02     0.07     9.46     0  03:01        0.07
  HS02004856           JUNCTION     0.08     0.13     9.55     0  03:01        0.13
  HS02004852           JUNCTION     0.01     0.05     9.56     0  03:01        0.05
  HS02004848           JUNCTION     0.01     0.05     9.65     0  03:01        0.05
  HS02004842           JUNCTION     0.34     0.38     9.65     0  03:01        0.38
  HS02004837           JUNCTION     0.03     0.07     9.65     0  03:01        0.07
  HS02004830           JUNCTION     0.04     0.08     9.55     0  03:01        0.08
  HS02004824           JUNCTION     0.03     0.06     9.46     0  03:01        0.06
  HS02004817           JUNCTION     0.45     0.60     9.44     0  03:01        0.60
  HS02004807           JUNCTION     0.14     0.27     9.44     0  03:01        0.27
  HS02004802           JUNCTION     0.17     0.30     9.43     0  03:01        0.30
  HS02004799           JUNCTION     0.14     0.33     9.54     0  03:01        0.33
  HS02004792           JUNCTION     0.04     0.14     9.66     0  03:01        0.14
  HS02004788           JUNCTION     0.03     0.10    10.00     0  03:01        0.10
  HS02004785           JUNCTION     0.06     0.17    10.07     0  03:01        0.17
  HS02004777           JUNCTION     0.16     0.30    10.10     0  03:01        0.30
  HS02004770           JUNCTION     0.13     0.27    10.10     0  03:01        0.27
  HS02004480           JUNCTION     0.10     0.26     9.50     0  03:01        0.26
  HS02004479           JUNCTION     0.13     0.30     9.50     0  03:01        0.30
  HS02004478           JUNCTION     0.07     0.18     9.41     0  03:01        0.18
  YS02001745           JUNCTION     0.68     0.88     8.40     0  03:22        0.88
  YS02001748           JUNCTION     1.07     2.27     9.35     0  02:41        1.32
  YS02001751           JUNCTION     1.25     2.17     9.05     0  02:42        1.52
  YS02001754           JUNCTION     1.51     2.20     8.81     0  02:41        1.80
  YS02001762           JUNCTION     1.71     2.09     8.49     0  02:42        2.02
  YS02001765           JUNCTION     1.66     2.03     8.48     0  02:42        1.96
  YS02001767           JUNCTION     1.63     1.99     8.47     0  02:42        1.92
  YS02001770           JUNCTION     1.62     1.95     8.44     0  02:41        1.90
  YS02001774           JUNCTION     1.69     2.02     8.44     0  02:41        1.96
  YS02001779           JUNCTION     1.44     1.68     8.37     0  02:40        1.68
  YS02001882           JUNCTION     0.54     1.70     8.42     0  02:57        1.60
  YS02001884           JUNCTION     0.64     1.79     8.40     0  02:57        1.70
  YS02001759           JUNCTION     1.74     2.12     8.49     0  02:42        2.05
  YS02001887           JUNCTION     0.71     1.83     8.37     0  02:57        1.78
  YS02001890           JUNCTION     0.74     1.81     8.32     0  02:57        1.81
  YS02001898           JUNCTION     0.51     1.57     8.31     0  02:58        1.55
  YS02001901           JUNCTION     0.63     1.68     8.29     0  02:57        1.66
  YS02001904           JUNCTION     0.61     1.64     8.27     0  02:57        1.63
  YS02001907           JUNCTION     0.94     1.96     8.25     0  02:57        1.96
  YS02001910           JUNCTION     0.73     1.81     8.32     0  02:59        1.77
  YS02001915           JUNCTION     0.52     1.66     8.37     0  02:59        1.60
  YS02001918           JUNCTION     0.26     1.39     8.45     0  02:59        1.28
  YS02001619           JUNCTION     1.22     1.61     8.54     0  02:34        1.47
  YS02001629           JUNCTION     1.58     1.85     8.40     0  02:36        1.84
  YS02001641           JUNCTION     1.68     1.98     8.42     0  02:42        1.93
  YS02001644           JUNCTION     1.68     1.92     8.35     0  02:40        1.92
  YS02001652           JUNCTION     1.52     2.16     8.76     0  02:55        2.09
  YS02001655           JUNCTION     1.28     2.20     9.05     0  02:40        2.05
  YS02001920           JUNCTION     0.36     1.49     8.50     0  02:59        1.36
  YS02001923           JUNCTION     0.20     1.27     8.53     0  02:59        1.12
  YS02001926           JUNCTION     0.25     1.15     8.60     0  02:59        0.97
  YS02001929           JUNCTION     0.14     0.79     8.48     0  03:00        0.79
  YS02001658           JUNCTION     1.02     2.30     9.44     0  02:40        1.86
  YS02001661           JUNCTION     0.79     2.46     9.86     0  02:56        1.81
  YS02001664           JUNCTION     0.35     0.57     8.50     0  02:54        0.56
  YS02001622           JUNCTION     1.25     1.62     8.52     0  02:40        1.49
  YS02001633           JUNCTION     1.67     2.05     8.51     0  02:42        1.93
  YS02001649           JUNCTION     1.72     2.05     8.44     0  02:40        2.05
  YS02001757           JUNCTION     1.84     2.21     8.47     0  02:41        2.16
  YS02001895           JUNCTION     0.50     1.57     8.32     0  02:57        1.54
  YS02001625           JUNCTION     1.53     1.78     8.38     0  02:34        1.78
  YS02163301           JUNCTION     1.61     1.96     8.48     0  02:42        1.88
  YS02163601           JUNCTION     1.72     2.08     8.48     0  02:42        1.98
  YS02164001           JUNCTION     1.66     1.99     8.45     0  02:42        1.91
  YS02001647           JUNCTION     1.51     1.81     8.42     0  02:45        1.79
  YSB1154              JUNCTION     0.27     0.45     9.51     0  03:01        0.45
  YSB6556              JUNCTION     0.17     0.34     9.51     0  03:01        0.34
  YSB1174              JUNCTION     0.22     0.40     9.51     0  03:01        0.40
  YSB1171              JUNCTION     0.42     0.60     9.51     0  03:01        0.60
  YS02006553           JUNCTION     0.94     2.09     8.37     0  02:57        1.96
  YS02006561           JUNCTION     0.30     1.78     8.44     0  02:57        1.07
  YS02006556           JUNCTION     0.91     2.19     8.50     0  02:57        1.91
  YS02006558           JUNCTION     0.95     2.26     8.53     0  02:57        1.95
  YS02001783           JUNCTION     0.55     1.89     8.04     0  02:57        1.46
  YS02001784           JUNCTION     0.57     1.88     7.95     0  02:56        1.40
  YS02001786           JUNCTION     0.51     2.20     8.23     0  02:56        1.25
  YS02001788           JUNCTION     0.46     2.11     8.08     0  02:56        1.12
  YS02001790           JUNCTION     0.62     1.96     7.60     0  02:56        1.29
  YS02001791           JUNCTION     0.62     1.76     7.23     0  02:56        1.27
  YS02001793           JUNCTION     0.90     1.85     6.68     0  05:38        1.80
  WS02004139           JUNCTION     0.62     0.68     5.59     0  03:00        0.68
  WSC                  OUTFALL      0.31     0.40     1.07     0  03:04        0.40
  3                    OUTFALL      0.13     0.23     6.23     0  00:00        0.21
  4                    OUTFALL      0.01     0.08     7.08     0  03:00        0.08
  5                    OUTFALL      0.00     0.00     5.00     0  00:00        0.00
  JK-storage           STORAGE      3.30     5.80     6.60     0  02:57        5.80
  CC-storage           STORAGE      1.06     1.38     8.38     0  03:20        1.38
  XR-storage           STORAGE      6.31     7.72     5.72     0  03:06        7.72
  
  
  *******************
  Node Inflow Summary
  *******************
  
  -------------------------------------------------------------------------------------------------
                                  Maximum  Maximum                  Lateral       Total        Flow
                                  Lateral    Total  Time of Max      Inflow      Inflow     Balance
                                   Inflow   Inflow   Occurrence      Volume      Volume       Error
  Node                 Type           LPS      LPS  days hr:min    10^6 ltr    10^6 ltr     Percent
  -------------------------------------------------------------------------------------------------
  WS02001211           JUNCTION      7.35   293.19     0  05:50       0.207        7.56       0.384
  WS02001212           JUNCTION      0.00   293.80     0  05:49           0        7.53       0.220
  WS02001213           JUNCTION      0.00   294.33     0  05:49           0        7.52       0.250
  WS02003069           JUNCTION      0.32   964.38     0  03:02     0.00902        15.6       0.133
  WS02003072           JUNCTION      0.00   964.04     0  03:02           0        15.6       0.177
  WS02003073           JUNCTION      1.82   965.73     0  03:03      0.0514        15.6       0.188
  WS02003060           JUNCTION     16.53   964.49     0  03:01       0.466        15.6       0.128
  WS02003066           JUNCTION      0.00   664.96     0  03:04           0        7.71       0.041
  WS02003059           JUNCTION      0.00   295.42     0  05:48           0         7.5       0.406
  WS02003067           JUNCTION      0.00   664.72     0  03:04           0        7.72       0.092
  WS02004401           JUNCTION      0.00   670.01     0  03:02           0         7.9       0.210
  WS02004402           JUNCTION      0.00   668.20     0  03:02           0        7.88       0.204
  WS02004403           JUNCTION      0.00   665.97     0  03:02           0        7.86       0.189
  WS02004404           JUNCTION      0.16   666.44     0  03:02     0.00457        7.85       0.147
  WS02004406           JUNCTION      0.00   666.57     0  03:02           0        7.83       0.360
  WS02004409           JUNCTION      0.00   666.46     0  03:02           0        7.79       0.133
  WS02004410           JUNCTION      0.00   665.95     0  03:03           0        7.78       0.158
  WS02004411           JUNCTION      0.00   665.48     0  03:03           0        7.77       0.169
  WS02004412           JUNCTION      0.00   665.11     0  03:03           0        7.76       0.192
  WS02004413           JUNCTION      0.00   664.98     0  03:04           0        7.74       0.300
  WS02004405           JUNCTION      0.04   666.51     0  03:02     0.00107        7.84       0.224
  WS02006109           JUNCTION      1.23   656.59     0  03:01      0.0347        7.93       0.235
  WS02006110           JUNCTION      0.00   656.65     0  03:01           0        7.91       0.196
  WS02006111           JUNCTION      0.00   688.93     0  03:01           0        7.89       0.036
  WS02006112           JUNCTION     14.47   672.27     0  03:01      0.0629        7.95       0.289
  WS02006113           JUNCTION      0.00   658.18     0  03:01           0        7.89       0.080
  WS02006115           JUNCTION      0.00   672.65     0  03:01           0        7.92       0.180
  WS02006116           JUNCTION      0.00   669.29     0  03:01           0        7.91       0.180
  WS02006230           JUNCTION     10.28   341.17     0  03:37        0.29        6.04       0.184
  WS02006231           JUNCTION      0.00   330.30     0  03:37           0        5.75       0.109
  WS02006232           JUNCTION      0.00   330.03     0  03:37           0        5.77       0.219
  WS02006234           JUNCTION      0.00   329.68     0  03:36           0        5.77       0.069
  WS02006235           JUNCTION      0.00   329.50     0  03:36           0         5.8       0.144
  WS02006238           JUNCTION      0.00   229.66     0  05:40           0        3.38       0.144
  WS02006240           JUNCTION      0.00   229.15     0  02:19           0        3.37       0.157
  WS02006242           JUNCTION      0.00   229.24     0  02:19           0        3.36       0.175
  WS02006243           JUNCTION      0.00   231.42     0  02:03           0        3.35      -0.126
  WS02006245           JUNCTION      0.00   235.22     0  02:03           0        3.36       0.086
  WS02006247           JUNCTION      0.00   238.03     0  02:04           0        3.36       0.006
  WS02006248           JUNCTION      0.00   239.97     0  02:04           0        3.35      -0.052
  WS02006249           JUNCTION      0.00   279.15     0  03:00           0        3.48       0.081
  WS02006239           JUNCTION      0.00   228.94     0  02:19           0        3.37       0.185
  WS02006251           JUNCTION      0.08   279.60     0  03:00     0.00217        3.48      -0.002
  WS02006252           JUNCTION      0.00   200.00     0  01:57           0        3.11       0.002
  WS02006253           JUNCTION      1.91    81.00     0  03:01     0.00814       0.369      -0.012
  WS02006256           JUNCTION      0.00   600.00     0  00:00           0        8.07       0.029
  WS02004138           JUNCTION      0.00   285.00     0  01:11           0        7.38       0.060
  WS02004407           JUNCTION      0.00   666.78     0  03:02           0         7.8       0.062
  WS02006228           JUNCTION      0.00   655.45     0  03:01           0        7.91       0.157
  WS02006229           JUNCTION      0.00   653.64     0  03:02           0        7.91       0.115
  WS02006280           JUNCTION      0.00   375.54     0  03:02           0        1.89       0.004
  WS02006284           JUNCTION      0.10   375.54     0  03:02      0.0027        1.89       0.064
  WS02006287           JUNCTION      0.00   375.27     0  03:01           0        1.89       0.037
  WSF200               JUNCTION      0.00   665.14     0  03:04           0        7.71       0.036
  HS02004901           JUNCTION     17.47    17.47     0  03:01      0.0757      0.0759       2.380
  HS02004881           JUNCTION      7.55    79.19     0  03:01      0.0331       0.357       0.061
  HS02004876           JUNCTION     14.15    72.10     0  03:01      0.0636       0.324       0.171
  HS02004870           JUNCTION     14.17    58.27     0  03:01      0.0626       0.261       0.043
  HS02004862           JUNCTION     13.95    44.46     0  03:01      0.0685       0.198       0.089
  HS02004856           JUNCTION     10.64    30.80     0  03:01      0.0471       0.131       1.115
  HS02004852           JUNCTION      0.00    20.44     0  03:01           0       0.084       0.069
  HS02004848           JUNCTION     32.07    32.07     0  03:01       0.151       0.151       0.033
  HS02004842           JUNCTION      0.00    11.42     0  03:01           0      0.0801      19.388
  HS02004837           JUNCTION     30.75    41.91     0  03:01       0.288       0.355       0.230
  HS02004830           JUNCTION      0.15    41.84     0  03:01     0.00423       0.346       0.358
  HS02004824           JUNCTION     40.25    81.79     0  03:01       0.197       0.542       0.100
  HS02004817           JUNCTION      0.60    82.18     0  03:01      0.0169       0.558       3.079
  HS02004807           JUNCTION     26.15   107.25     0  03:01       0.115       0.657       0.656
  HS02004802           JUNCTION      0.00   106.49     0  03:01           0       0.653       0.620
  HS02004799           JUNCTION     21.02   227.51     0  03:01      0.0932        1.06       0.236
  HS02004792           JUNCTION     88.55   207.33     0  03:01       0.396       0.966       0.043
  HS02004788           JUNCTION     30.78   119.38     0  03:01       0.177       0.571       0.068
  HS02004785           JUNCTION      0.15    89.79     0  03:01     0.00423       0.396       0.125
  HS02004777           JUNCTION      0.03    90.24     0  03:01    0.000846       0.397       1.326
  HS02004770           JUNCTION     73.89    90.93     0  03:01       0.324       0.398       0.787
  HS02004480           JUNCTION      0.00   269.27     0  03:01           0        1.25       0.099
  HS02004479           JUNCTION      0.00    42.82     0  03:02           0       0.204       0.360
  HS02004478           JUNCTION      0.00   375.17     0  03:01           0        1.89       0.018
  YS02001745           JUNCTION    297.18   425.35     0  02:40        2.34        2.35       0.484
  YS02001748           JUNCTION      0.04   606.73     0  02:41     0.00127        2.34       0.987
  YS02001751           JUNCTION      0.01   309.20     0  03:01     0.00031         2.3       1.040
  YS02001754           JUNCTION      0.26   309.05     0  03:01     0.00733        2.29       1.095
  YS02001762           JUNCTION      0.00   335.28     0  02:55           0        1.72       1.232
  YS02001765           JUNCTION      0.00   335.00     0  02:54           0        1.72       1.421
  YS02001767           JUNCTION      0.54   335.19     0  02:55      0.0151        1.75       2.079
  YS02001770           JUNCTION    373.02   373.02     0  03:01        2.63        2.71       1.181
  YS02001774           JUNCTION      0.00   338.09     0  03:24           0        1.04       2.484
  YS02001779           JUNCTION      0.01   338.24     0  03:24    0.000141           1       1.549
  YS02001882           JUNCTION      0.00    12.93     0  02:30           0      0.0146      18.571
  YS02001884           JUNCTION      0.00    21.81     0  02:30           0      0.0502      13.671
  YS02001759           JUNCTION    359.84   661.56     0  02:55        2.43        4.04       0.569
  YS02001887           JUNCTION    453.35   453.35     0  03:01         2.8        2.83       0.301
  YS02001890           JUNCTION      0.00   453.55     0  03:01           0        2.79       0.331
  YS02001898           JUNCTION      0.00   453.53     0  03:01           0        2.77       0.117
  YS02001901           JUNCTION      0.00   453.53     0  03:01           0        2.77       0.248
  YS02001904           JUNCTION      0.00   453.55     0  03:01           0        2.77       0.228
  YS02001907           JUNCTION      0.00  1027.18     0  03:00           0        6.12       0.393
  YS02001910           JUNCTION      0.00   576.26     0  03:00           0        3.37       0.348
  YS02001915           JUNCTION    263.65   576.21     0  03:00        1.96        3.39       0.180
  YS02001918           JUNCTION      0.00   313.35     0  03:00           0        1.44       0.131
  YS02001619           JUNCTION    257.27   257.27     0  03:01        1.95        1.95       0.628
  YS02001629           JUNCTION      0.00   207.27     0  02:49           0        1.63       1.784
  YS02001641           JUNCTION      0.00   438.12     0  02:49           0        3.84       0.551
  YS02001644           JUNCTION    282.70  1052.74     0  03:21        2.25        8.65       0.304
  YS02001652           JUNCTION      0.00   374.77     0  03:01           0        2.04       1.143
  YS02001655           JUNCTION      0.15   374.84     0  03:01     0.00434        2.06       1.236
  YS02001920           JUNCTION      2.87   313.32     0  03:00      0.0809        1.44       0.204
  YS02001923           JUNCTION      0.04   315.13     0  03:00     0.00106        1.35       0.037
  YS02001926           JUNCTION      0.05   241.43     0  03:01     0.00147        1.34       0.254
  YS02001929           JUNCTION    129.40   160.09     0  02:59        1.34        1.34       0.040
  YS02001658           JUNCTION      0.00   578.19     0  02:40           0        2.08       1.109
  YS02001661           JUNCTION      0.00   696.18     0  02:54           0        2.81      -0.032
  YS02001664           JUNCTION    327.80   362.12     0  02:54        2.09        2.82       0.238
  YS02001622           JUNCTION      0.00   257.29     0  03:01           0        1.94       1.661
  YS02001633           JUNCTION    287.40   438.53     0  02:49        2.32         3.9       0.828
  YS02001649           JUNCTION      0.00   934.89     0  02:50           0        4.98       0.751
  YS02001757           JUNCTION      0.00  1777.36     0  02:51           0        8.59       1.086
  YS02001895           JUNCTION      0.00   453.65     0  03:01           0        2.78       0.178
  YS02001625           JUNCTION      0.00   257.31     0  03:01           0         1.9       2.065
  YS02163301           JUNCTION      0.00   207.24     0  02:39           0        1.61       1.506
  YS02163601           JUNCTION      0.11   438.45     0  02:49      0.0031        3.87       0.784
  YS02164001           JUNCTION      0.00   438.29     0  02:49           0        3.84       0.526
  YS02001647           JUNCTION      0.00   666.08     0  02:49           0        4.08       0.700
  YSB1154              JUNCTION     25.19    25.19     0  03:01       0.113       0.114       1.286
  YSB6556              JUNCTION      0.00    24.91     0  03:01           0       0.115       1.100
  YSB1174              JUNCTION     19.06    19.06     0  03:01      0.0821      0.0827       1.581
  YSB1171              JUNCTION      0.00    43.19     0  03:01           0       0.203       3.219
  YS02006553           JUNCTION      0.00   694.05     0  02:56           0        5.96       0.263
  YS02006561           JUNCTION      0.00  1059.56     0  02:56           0        8.48       0.007
  YS02006556           JUNCTION      0.00   693.87     0  02:56           0        5.96       0.189
  YS02006558           JUNCTION    392.87  1059.76     0  02:56        2.57        8.51       0.065
  YS02001783           JUNCTION      0.00  1053.06     0  02:56           0        8.48       0.029
  YS02001784           JUNCTION      1.06  1054.16     0  02:56      0.0299        8.51       0.045
  YS02001786           JUNCTION      0.06  1053.96     0  02:56     0.00159         8.5       0.041
  YS02001788           JUNCTION      0.07  1049.03     0  02:56       0.002         8.5       0.022
  YS02001790           JUNCTION      0.15  1044.59     0  02:55     0.00437         8.5       0.031
  YS02001791           JUNCTION      0.00  1094.68     0  02:55           0         8.5       0.007
  YS02001793           JUNCTION      0.00  1004.81     0  02:53           0         8.5       0.001
  WS02004139           JUNCTION      0.32   290.33     0  00:00     0.00905        7.39       0.441
  WSC                  OUTFALL       0.00   965.53     0  03:04           0        15.6       0.000
  3                    OUTFALL       0.00   597.65     0  00:00           0        5.62       0.000
  4                    OUTFALL       0.00    70.07     0  03:00           0       0.123       0.000
  5                    OUTFALL       0.00     0.00     0  00:00           0           0       0.000 ltr
  JK-storage           STORAGE       0.00   979.59     0  02:57           0        8.65      -9.527
  CC-storage           STORAGE       0.00  1777.12     0  02:51           0           7       0.757
  XR-storage           STORAGE     690.11   690.11     0  03:01        9.61        10.2      -0.003
  
  
  **********************
  Node Surcharge Summary
  **********************
  
  Surcharging occurs when water rises above the top of the highest conduit.
  ---------------------------------------------------------------------
                                               Max. Height   Min. Depth
                                   Hours       Above Crown    Below Rim
  Node                 Type      Surcharged         Meters       Meters
  ---------------------------------------------------------------------
  WS02004404           JUNCTION        0.73          0.060        2.720
  WS02004406           JUNCTION        0.43          0.032        2.418
  WS02004405           JUNCTION        0.58          0.047        2.753
  WS02006109           JUNCTION        1.71          0.288        1.532
  WS02006110           JUNCTION        1.06          0.111        1.739
  WS02006112           JUNCTION        1.13          0.195        1.485
  WS02006230           JUNCTION        0.65          0.088        1.482
  WS02006231           JUNCTION        0.87          0.114        1.416
  WS02006232           JUNCTION        1.14          0.247        1.233
  WS02006234           JUNCTION        0.97          0.137        1.103
  WS02006235           JUNCTION        1.03          0.171        1.119
  WS02006238           JUNCTION        1.04          0.185        1.245
  WS02006240           JUNCTION        0.85          0.078        1.312
  WS02006242           JUNCTION        0.92          0.105        0.715
  WS02006239           JUNCTION        0.94          0.113        1.177
  WS02006256           JUNCTION        0.01          1.050        0.000
  WS02006228           JUNCTION        1.68          0.343        1.857
  YS02001748           JUNCTION        5.06          1.190        0.000
  YS02001751           JUNCTION        5.20          1.168        0.032
  YS02001754           JUNCTION        5.40          1.150        0.000
  YS02001762           JUNCTION        5.64          1.095        0.055
  YS02001765           JUNCTION        5.61          1.027        0.073
  YS02001767           JUNCTION        5.58          0.985        0.045
  YS02001770           JUNCTION        5.56          0.920        0.000
  YS02001774           JUNCTION        5.63          1.020        0.030
  YS02001779           JUNCTION        5.40          0.680        0.000
  YS02001882           JUNCTION        0.72          0.703        0.127
  YS02001884           JUNCTION        0.76          0.727        0.143
  YS02001759           JUNCTION        5.66          1.122        0.088
  YS02001887           JUNCTION        0.87          0.783        0.167
  YS02001890           JUNCTION        0.90          0.760        0.000
  YS02001898           JUNCTION        0.65          0.542        0.198
  YS02001901           JUNCTION        0.82          0.684        0.186
  YS02001904           JUNCTION        0.79          0.645        0.205
  YS02001907           JUNCTION        1.48          0.950        0.000
  YS02001910           JUNCTION        0.95          0.811        0.289
  YS02001915           JUNCTION        0.70          0.655        0.345
  YS02001918           JUNCTION        0.41          0.388        0.422
  YS02001619           JUNCTION        5.22          0.610        0.000
  YS02001629           JUNCTION        5.22          0.470        0.000
  YS02001641           JUNCTION        5.62          0.981        0.119
  YS02001644           JUNCTION        5.62          0.920        0.000
  YS02001652           JUNCTION        5.41          1.130        0.000
  YS02001655           JUNCTION        5.25          1.200        0.000
  YS02001920           JUNCTION        0.45          0.488        0.652
  YS02001923           JUNCTION        0.01          0.061        0.759
  YS02001926           JUNCTION        0.01          0.153        0.747
  YS02001658           JUNCTION        5.08          1.300        0.000
  YS02001661           JUNCTION        0.23          1.390        0.000
  YS02001622           JUNCTION        5.25          0.620        0.000
  YS02001633           JUNCTION        5.60          1.032        0.028
  YS02001649           JUNCTION        5.64          1.050        0.000
  YS02001757           JUNCTION        5.74          1.210        0.000
  YS02001895           JUNCTION        0.68          0.571        0.179
  YS02001625           JUNCTION        5.43          0.780        0.000
  YS02163301           JUNCTION        5.58          0.961        0.069
  YS02163601           JUNCTION        5.64          1.078        0.002
  YS02164001           JUNCTION        5.61          0.991        0.109
  YS02001647           JUNCTION        5.42          0.815        0.085
  YS02006553           JUNCTION        1.53          1.087        0.103
  YS02006561           JUNCTION        0.53          0.984        0.166
  YS02006556           JUNCTION        1.20          1.153        0.197
  YS02006558           JUNCTION        1.16          1.164        0.236
  YS02001783           JUNCTION        1.12          1.094        0.506
  YS02001784           JUNCTION        1.14          1.083        0.407
  YS02001786           JUNCTION        0.97          1.395        0.035
  YS02001788           JUNCTION        0.96          1.307        0.173
  YS02001790           JUNCTION        2.29          1.157        0.000
  YS02001791           JUNCTION        2.61          0.962        0.958
  YS02001793           JUNCTION        3.12          0.845        1.755
  
  
  *********************
  Node Flooding Summary
  *********************
  
  Flooding refers to all water that overflows a node, whether it ponds or not.
  --------------------------------------------------------------------------
                                                             Total   Maximum
                                 Maximum   Time of Max       Flood    Ponded
                        Hours       Rate    Occurrence      Volume     Depth
  Node                 Flooded       LPS   days hr:min    10^6 ltr    Meters
  --------------------------------------------------------------------------
  WS02006256              0.01    406.11      0  00:00       0.001     0.000
  YS02001748              0.01    233.80      0  02:42       0.000     0.000
  YS02001754              0.01     12.17      0  02:41       0.000     0.000
  YS02001770              0.01      7.07      0  02:42       0.000     0.000
  YS02001779              2.77    338.19      0  03:24       0.982     0.000
  YS02001890              0.01     15.04      0  02:57       0.000     0.000
  YS02001907              0.28    454.03      0  03:00       0.148     0.000
  YS02001619              0.01     35.60      0  02:39       0.000     0.000
  YS02001629              0.01     38.72      0  02:40       0.001     0.000
  YS02001644              4.98   1052.69      0  03:21       7.109     0.000
  YS02001652              0.01     23.81      0  02:59       0.000     0.000
  YS02001655              0.01     16.46      0  02:59       0.000     0.000
  YS02001658              0.01    166.50      0  02:40       0.000     0.000
  YS02001661              0.01    184.04      0  02:59       0.001     0.000
  YS02001622              0.01     22.42      0  02:40       0.000     0.000
  YS02001649              0.09     50.51      0  02:59       0.005     0.000
  YS02001757              0.01     19.60      0  02:42       0.000     0.000
  YS02001625              0.83    169.16      0  03:01       0.236     0.000
  YS02001790              0.01     35.00      0  02:56       0.000     0.000
  JK-storage              1.65    962.21      0  03:10       1.494     0.000
  XR-storage              4.29    535.70      0  03:10       1.905     0.000
  
  
  **********************
  Storage Volume Summary
  **********************
  
  --------------------------------------------------------------------------------------------------
                         Average     Avg  Evap Exfil       Maximum     Max    Time of Max    Maximum
                          Volume    Pcnt  Pcnt  Pcnt        Volume    Pcnt     Occurrence    Outflow
  Storage Unit           1000 m3    Full  Loss  Loss       1000 m3    Full    days hr:min        LPS
  --------------------------------------------------------------------------------------------------
  JK-storage               0.166      57     0     0         0.291     100       0  02:57     600.00
  CC-storage               2.942      19     0     0         3.853      25       0  03:20     200.00
  XR-storage               0.757      82     0     0         0.926     100       0  03:06     285.00
  
  
  ***********************
  Outfall Loading Summary
  ***********************
  
  -----------------------------------------------------------
                         Flow       Avg       Max       Total
                         Freq      Flow      Flow      Volume
  Outfall Node           Pcnt       LPS       LPS    10^6 ltr
  -----------------------------------------------------------
  WSC                   99.99    632.24    965.53      15.601
  3                     93.76    288.86    597.65       5.622
  4                     17.54     37.80     70.07       0.123
  5                      0.00      0.00      0.00       0.000
  -----------------------------------------------------------
  System                52.82    958.90   1560.85      21.345
  
  
  ********************
  Link Flow Summary
  ********************
  
  -----------------------------------------------------------------------------
                                 Maximum  Time of Max   Maximum    Max/    Max/
                                  |Flow|   Occurrence   |Veloc|    Full    Full
  Link                 Type          LPS  days hr:min     m/sec    Flow   Depth
  -----------------------------------------------------------------------------
  WS02003066WSF200     CONDUIT    665.14     0  03:04      2.85    0.11    0.26
  WS02006287WS02006284 CONDUIT    375.44     0  03:02      1.98    0.17    0.29
  WS02006284WS02006280 CONDUIT    375.54     0  03:02      2.22    0.16    0.27
  WS02006280WS02006229 CONDUIT    375.58     0  03:02      3.58    0.08    0.19
  WS02006229WS02006228 CONDUIT    655.45     0  03:01      1.30    2.17    1.00
  WS02006256WS02006235 CONDUIT    177.52     0  00:01      2.73    1.88    1.00
  WS02006253WS02006251 CONDUIT     85.86     0  03:01      0.46    0.26    0.81
  WS02006252WS02006251 CONDUIT    200.34     0  04:30      1.97    0.74    0.76
  WS02006251WS02006249 CONDUIT    279.15     0  03:00      0.99    0.80    0.81
  WS02006249WS02006248 CONDUIT    239.97     0  02:04      1.07    1.31    0.82
  WS02006248WS02006247 CONDUIT    238.03     0  02:04      1.05    0.52    0.88
  WS02006247WS02006245 CONDUIT    235.22     0  02:03      0.99    1.87    0.93
  WS02006245WS02006243 CONDUIT    231.42     0  02:03      1.07    0.68    0.97
  WS02006243WS02006242 CONDUIT    229.24     0  02:19      0.87    0.49    1.00
  WS02006242WS02006240 CONDUIT    229.15     0  02:19      0.77    0.91    1.00
  WS02006240WS02006239 CONDUIT    228.94     0  02:19      0.84    0.72    1.00
  WS02006239WS02006238 CONDUIT    229.66     0  05:40      0.76    0.73    1.00
  WS02006238WS02006235 CONDUIT    234.71     0  05:40      1.32    0.52    1.00
  WS02006235WS02006234 CONDUIT    329.68     0  03:36      0.94    3.48    1.00
  WS02006234WS02006232 CONDUIT    330.03     0  03:37      1.17    0.67    1.00
  WS02006232WS02006231 CONDUIT    330.30     0  03:37      0.94    0.69    1.00
  WS02006231WS02006230 CONDUIT    330.89     0  03:37      1.29    5.02    1.00
  WS02006230WS02006229 CONDUIT    342.11     0  03:36      0.89    7.61    1.00
  WS02006228WS02006109 CONDUIT    655.36     0  03:01      1.30    2.86    1.00
  WS02006116WS02004401 CONDUIT    670.01     0  03:02      0.86    0.92    0.97
  WS02006115WS02006116 CONDUIT    669.29     0  03:01      0.90    0.86    0.90
  WS02006113WS02006111 CONDUIT    688.93     0  03:01      2.58    0.83    0.54
  WS02006112WS02006115 CONDUIT    672.65     0  03:01      0.88    0.40    0.94
  WS02006111WS02006112 CONDUIT    659.00     0  03:01      1.72    0.31    0.72
  WS02006110WS02006113 CONDUIT    658.18     0  03:01      1.50    0.60    0.82
  WS02006109WS02006110 CONDUIT    656.65     0  03:01      1.31    1.26    1.00
  WS02004411WS02004412 CONDUIT    665.11     0  03:03      1.03    0.94    0.76
  WS02004401WS02004402 CONDUIT    668.20     0  03:02      0.85    0.80    0.99
  WS02004413WS02003067 CONDUIT    664.72     0  03:04      1.25    0.28    0.64
  WS02004412WS02004413 CONDUIT    664.98     0  03:04      0.94    0.45    0.84
  WS02004410WS02004411 CONDUIT    665.48     0  03:03      1.03    0.91    0.76
  WS02004409WS02004410 CONDUIT    665.95     0  03:03      1.04    0.86    0.76
  WS02004407WS02004409 CONDUIT    666.46     0  03:02      1.53    0.24    0.54
  WS02004406WS02004407 CONDUIT    666.78     0  03:02      1.20    0.30    0.67
  WS02004405WS02004406 CONDUIT    666.57     0  03:02      0.85    1.31    1.00
  WS02004404WS02004405 CONDUIT    666.47     0  03:02      0.85    6.53    1.00
  WS02004403WS02004404 CONDUIT    666.28     0  03:02      0.85    0.48    1.00
  WS02004402WS02004403 CONDUIT    665.97     0  03:02      0.85    0.96    1.00
  WS02004139WS02001211 CONDUIT    285.85     0  05:50      0.80    0.36    0.55
  WS02004138WS02004139 CONDUIT    290.01     0  00:00      3.34    0.06    0.40
  WS02003067WS02003066 CONDUIT    664.96     0  03:04      1.36    0.21    0.45
  WS02001213WS02003059 CONDUIT    295.42     0  05:48      0.80    0.49    0.75
  WS02001212WS02001213 CONDUIT    294.33     0  05:49      1.19    0.45    0.44
  WS02001211WS02001212 CONDUIT    293.80     0  05:49      0.67    0.22    0.60
  WS02003072WS02003073 CONDUIT    963.91     0  03:03      1.74    2.08    0.49
  WS02003069WS02003072 CONDUIT    964.04     0  03:02      1.64    0.46    0.52
  WS02003060WS02003069 CONDUIT    964.06     0  03:02      1.88    0.38    0.46
  WS02003059WS02003060 CONDUIT    297.00     0  05:47      0.82    0.19    0.66
  HS02004901HS02004770 CONDUIT     17.70     0  03:01      0.07    0.07    0.39
  HS02004876HS02004881 CONDUIT     71.90     0  03:01      0.92    0.76    0.11
  HS02004870HS02004876 CONDUIT     58.03     0  03:01      0.63    0.04    0.13
  HS02004842HS02004848 CONDUIT     11.42     0  03:01      0.05    0.01    0.30
  HS02004837HS02004842 CONDUIT     11.94     0  03:02      0.41    0.01    0.32
  HS02004830HS02004837 CONDUIT     41.69     0  03:01      0.56    0.04    0.11
  HS02004824HS02004830 CONDUIT     41.67     0  03:01      0.58    0.05    0.10
  HS02004817HS02004824 CONDUIT     81.58     0  03:01      0.25    0.04    0.47
  HS02004770HS02004777 CONDUIT     90.21     0  03:01      0.32    0.16    0.41
  HS02004799HS02004480 CONDUIT    226.97     0  03:01      0.78    0.29    0.42
  HS02004792HS02004799 CONDUIT    206.60     0  03:01      0.88    0.13    0.33
  HS02004788HS02004792 CONDUIT    118.94     0  03:01      1.01    0.08    0.17
  HS02004785HS02004788 CONDUIT     89.52     0  03:02      0.66    0.67    0.19
  HS02004777HS02004785 CONDUIT     89.64     0  03:01      0.38    0.11    0.33
  HS02004480HS02004478 CONDUIT    269.12     0  03:01      1.20    1.13    0.32
  HS02004479HS02004480 CONDUIT     44.17     0  03:02      0.23    0.04    0.40
  HS02004862HS02004870 CONDUIT     44.23     0  03:01      0.64    0.05    0.10
  HS02004848HS02004852 CONDUIT     20.44     0  03:01      0.44    0.02    0.07
  HS02004856HS02004862 CONDUIT     30.56     0  03:01      0.47    0.03    0.09
  HS02004852HS02004856 CONDUIT     20.26     0  03:01      0.24    0.02    0.12
  HS02004802HS02004478 CONDUIT    106.59     0  03:02      0.45    0.09    0.35
  HS02004478WS02006287 CONDUIT    375.27     0  03:01      1.68    0.11    0.25
  HS02004817HS02004807 CONDUIT     82.18     0  03:01      0.19    0.05    0.62
  HS02004807HS02004802 CONDUIT    106.49     0  03:01      0.38    0.20    0.40
  YS02001759YS02001757 CONDUIT    661.47     0  02:55      0.84    0.47    1.00
  YS02001762YS02001759 CONDUIT    334.88     0  02:55      0.43    0.39    1.00
  YS02001765YS02001762 CONDUIT    335.28     0  02:55      0.43    0.31    1.00
  YS02001770YS02001767 CONDUIT    334.65     0  02:55      0.43    1.33    1.00
  YS02001774YS02001770 CONDUIT    338.09     0  03:24      0.43    0.22    1.00
  YS02001779YS02001774 CONDUIT    338.23     0  03:24      0.43    0.17    1.00
  YS02001649YS02001757 CONDUIT    934.96     0  02:50      1.19    0.57    1.00
  YS02001767YS02001765 CONDUIT    335.00     0  02:54      0.43    0.42    1.00
  YS02006561YS02001783 CONDUIT   1053.06     0  02:56      2.26    0.55    1.00
  YS02001783YS02001784 CONDUIT   1053.10     0  02:56      2.10    1.45    1.00
  YS02001784YS02001785 CONDUIT   1053.90     0  02:56      2.11    2.45    1.00
  YS02001788YS02001790 CONDUIT   1044.43     0  02:55      2.56    0.77    1.00
  YS02001790YS02001791 CONDUIT   1094.68     0  02:55      3.22    1.19    1.00
  YS02001791YS02001793 CONDUIT   1004.81     0  02:53      6.27    0.43    1.00
  YS02001910YS02001907 CONDUIT    576.31     0  03:00      0.73    0.32    1.00
  YS02001786YS02001788 CONDUIT   1048.96     0  02:56      2.35    2.02    1.00
  YS02001915YS02001910 CONDUIT    576.26     0  03:00      0.73    0.29    1.00
  YS02001918YS02001915 CONDUIT    314.33     0  03:00      0.44    0.17    1.00
  YS02001923YS02001920 CONDUIT    310.45     0  03:00      0.68    0.14    1.00
  YS02001926YS02001923 CONDUIT    315.09     0  03:00      0.79    0.45    1.00
  YS02001929YS02001926 CONDUIT    241.38     0  03:01      0.85    0.11    0.88
  YS02001920YS02001918 CONDUIT    313.35     0  03:00      0.67    0.30    1.00
  YS02001629YS02163301 CONDUIT    207.24     0  02:39      0.26    0.26    1.00
  YS02001619YS02001622 CONDUIT    257.29     0  03:01      0.61    0.38    1.00
  YS02001622YS02001625 CONDUIT    257.31     0  03:01      0.33    0.14    1.00
  YS02001625YS02001629 CONDUIT    207.27     0  02:49      0.26    0.10    1.00
  YS02163301YS02001633 CONDUIT    207.31     0  02:39      0.26    0.19    1.00
  YS02163601YS02164001 CONDUIT    438.29     0  02:49      0.56    0.39    1.00
  YS02164001YS02001641 CONDUIT    438.12     0  02:49      0.56    0.60    1.00
  YS02001641YS02001644 CONDUIT    438.15     0  02:49      0.56    1.42    1.00
  YS02001647YS02001649 CONDUIT    666.17     0  02:49      0.85    0.35    1.00
  YS02006553YS02006556 CONDUIT    693.87     0  02:56      0.88    0.59    1.00
  YS02006556YS02006558 CONDUIT    694.10     0  02:56      0.88    0.55    1.00
  YSB6556YSB1171       CONDUIT     24.81     0  03:03      0.09    0.03    0.67
  YS02001907YS02006553 CONDUIT    694.05     0  02:56      0.77    0.82    1.00
  YS02006558YS02006561 CONDUIT   1059.56     0  02:56      3.75    2.34    1.00
  YS02001633YS02163601 CONDUIT    438.34     0  02:49      0.56    0.46    1.00
  YS02001644YS02001647 CONDUIT    666.08     0  02:49      0.85    0.39    1.00
  YS02001745YS02001748 CONDUIT    606.69     0  02:41      1.48    0.23    0.94
  YS02001748YS02001751 CONDUIT    309.19     0  03:01      1.05    0.16    1.00
  YS02001751YS02001754 CONDUIT    308.79     0  03:01      0.88    0.15    1.00
  YS02001754YS02001757 CONDUIT    309.07     0  03:01      0.39    0.12    1.00
  YS02001882YS02001884 CONDUIT     12.93     0  02:30      0.09    0.01    1.00
  YS02001884YS02001887 CONDUIT     21.81     0  02:30      0.05    0.03    1.00
  YS02001890YS02001895 CONDUIT    453.65     0  03:01      0.58    0.21    1.00
  YS02001895YS02001898 CONDUIT    453.53     0  03:01      0.58    0.79    1.00
  YS02001898YS02001901 CONDUIT    453.53     0  03:01      0.58    0.29    1.00
  YS02001901YS02001904 CONDUIT    453.55     0  03:01      0.58    0.70    1.00
  YS02001904YS02001907 CONDUIT    453.59     0  03:01      0.58    0.16    1.00
  YS02001887YS02001890 CONDUIT    453.55     0  03:01      0.58    0.78    1.00
  YS02001652YS02001649 CONDUIT    374.81     0  03:01      0.50    0.19    1.00
  YS02001655YS02001652 CONDUIT    374.77     0  03:01      0.93    0.18    1.00
  YS02001658YS02001655 CONDUIT    374.69     0  03:01      1.21    0.16    1.00
  YS02001661YS02001658 CONDUIT    578.19     0  02:40      1.56    0.23    1.00
  YS02001664YS02001661 CONDUIT    696.18     0  02:54      1.58    0.22    0.72
  YSB1154YSB6556       CONDUIT     24.91     0  03:01      0.19    0.04    0.56
  YSB1174YSB1171       CONDUIT     18.78     0  03:01      0.07    0.03    0.68
  YSB1171HS02004479    CONDUIT     42.82     0  03:02      0.54    0.03    0.53
  HS02004881HS02006253 CONDUIT     79.15     0  03:01      1.79    0.02    0.20
  YS02001793JiankangQianchi CONDUIT    979.59     0  02:57     16.40    0.08    1.00
  YS02001757CaochengTiaoxuchi CONDUIT   1777.12     0  02:51      2.39    0.78    1.00
  WSF200WS02003060     CONDUIT    666.25     0  03:04      1.88    0.15    0.36
  1                    CONDUIT    965.53     0  03:04      3.30    0.34    0.40
  2                    CONDUIT     70.07     0  03:00      4.38    0.17    0.28
  3                    CONDUIT    597.65     0  00:00     10.05    0.95    0.86
  4                    CONDUIT      0.00     0  00:00      0.00    0.00    0.00
  CC-Pump-1            PUMP       200.00     0  02:00              1.00
  CC-Pump-2            PUMP       199.93     0  05:10              1.00
  JK-Pump-1            PUMP       300.00     0  00:00              1.00
  JK-Pump-2            PUMP       300.00     0  00:00              1.00
  XR-Pump-1            PUMP        95.00     0  04:00              1.00
  XR-Pump-2            PUMP        95.00     0  00:00              1.00
  XR-Pump-3            PUMP        95.00     0  00:00              1.00
  XR-Pump-4            PUMP        95.00     0  00:00              1.00
  
  
  ***************************
  Flow Classification Summary
  ***************************
  
  -------------------------------------------------------------------------------------
                      Adjusted    ---------- Fraction of Time in Flow Class ---------- 
                       /Actual         Up    Down  Sub   Sup   Up    Down  Norm  Inlet 
  Conduit               Length    Dry  Dry   Dry   Crit  Crit  Crit  Crit  Ltd   Ctrl  
  -------------------------------------------------------------------------------------
  WS02003066WSF200        1.00   0.06  0.00  0.00  0.00  0.94  0.00  0.00  0.59  0.00
  WS02006287WS02006284    1.00   0.03  0.01  0.00  0.55  0.41  0.00  0.00  0.65  0.00
  WS02006284WS02006280    1.00   0.04  0.00  0.00  0.00  0.00  0.00  0.96  0.00  0.00
  WS02006280WS02006229    1.00   0.04  0.00  0.00  0.00  0.00  0.00  0.96  0.00  0.00
  WS02006229WS02006228    1.00   0.00  0.00  0.00  0.98  0.00  0.00  0.02  0.00  0.00
  WS02006256WS02006235    1.00   0.00  0.00  0.00  1.00  0.00  0.00  0.00  0.00  0.00
  WS02006253WS02006251    1.00   0.02  0.01  0.00  0.96  0.00  0.00  0.00  0.00  0.00
  WS02006252WS02006251    1.00   0.06  0.00  0.00  0.00  0.00  0.94  0.00  0.00  0.00
  WS02006251WS02006249    1.00   0.00  0.00  0.00  1.00  0.00  0.00  0.00  0.35  0.00
  WS02006249WS02006248    1.00   0.00  0.02  0.00  0.80  0.00  0.18  0.00  0.00  0.00
  WS02006248WS02006247    1.00   0.02  0.00  0.00  0.97  0.00  0.00  0.01  0.24  0.00
  WS02006247WS02006245    1.00   0.02  0.00  0.00  0.97  0.00  0.00  0.02  0.00  0.00
  WS02006245WS02006243    1.00   0.02  0.00  0.00  0.95  0.00  0.00  0.03  0.01  0.00
  WS02006243WS02006242    1.00   0.01  0.00  0.00  0.99  0.00  0.00  0.00  0.21  0.00
  WS02006242WS02006240    1.00   0.00  0.00  0.00  1.00  0.00  0.00  0.00  0.00  0.00
  WS02006240WS02006239    1.00   0.00  0.00  0.00  0.96  0.00  0.00  0.03  0.02  0.00
  WS02006239WS02006238    1.00   0.00  0.00  0.00  1.00  0.00  0.00  0.00  0.00  0.00
  WS02006238WS02006235    1.00   0.00  0.00  0.00  1.00  0.00  0.00  0.00  0.00  0.00
  WS02006235WS02006234    1.00   0.00  0.00  0.00  0.96  0.00  0.04  0.00  0.00  0.00
  WS02006234WS02006232    1.00   0.00  0.00  0.00  1.00  0.00  0.00  0.00  0.00  0.00
  WS02006232WS02006231    1.00   0.00  0.00  0.00  0.99  0.00  0.01  0.00  0.00  0.00
  WS02006231WS02006230    1.00   0.00  0.00  0.00  0.47  0.00  0.53  0.00  0.00  0.00
  WS02006230WS02006229    1.00   0.00  0.00  0.00  0.98  0.00  0.00  0.02  0.01  0.00
  WS02006228WS02006109    1.00   0.00  0.00  0.00  1.00  0.00  0.00  0.00  0.00  0.00
  WS02006116WS02004401    1.00   0.02  0.00  0.00  0.98  0.00  0.00  0.00  0.00  0.00
  WS02006115WS02006116    1.00   0.02  0.00  0.00  0.97  0.00  0.00  0.01  0.01  0.00
  WS02006113WS02006111    1.00   0.02  0.00  0.00  0.00  0.98  0.00  0.00  0.11  0.00
  WS02006112WS02006115    1.00   0.02  0.00  0.00  0.98  0.00  0.00  0.00  0.00  0.00
  WS02006111WS02006112    1.00   0.02  0.00  0.00  0.98  0.00  0.00  0.00  0.91  0.00
  WS02006110WS02006113    1.00   0.01  0.00  0.00  0.98  0.00  0.00  0.00  0.00  0.00
  WS02006109WS02006110    1.00   0.00  0.01  0.00  0.98  0.00  0.00  0.00  0.00  0.00
  WS02004411WS02004412    1.00   0.05  0.00  0.00  0.95  0.00  0.00  0.00  0.00  0.00
  WS02004401WS02004402    1.00   0.02  0.00  0.00  0.98  0.00  0.00  0.00  0.00  0.00
  WS02004413WS02003067    1.00   0.05  0.01  0.00  0.00  0.00  0.94  0.00  0.00  0.00
  WS02004412WS02004413    1.00   0.05  0.00  0.00  0.95  0.00  0.00  0.00  0.01  0.00
  WS02004410WS02004411    1.00   0.05  0.00  0.00  0.95  0.00  0.00  0.00  0.00  0.00
  WS02004409WS02004410    1.00   0.04  0.00  0.00  0.96  0.00  0.00  0.00  0.00  0.00
  WS02004407WS02004409    1.00   0.04  0.00  0.00  0.95  0.00  0.00  0.00  0.80  0.00
  WS02004406WS02004407    1.00   0.00  0.04  0.00  0.96  0.00  0.00  0.00  0.00  0.00
  WS02004405WS02004406    1.00   0.00  0.00  0.00  1.00  0.00  0.00  0.00  0.02  0.00
  WS02004404WS02004405    1.00   0.00  0.00  0.00  1.00  0.00  0.00  0.00  0.00  0.00
  WS02004403WS02004404    1.00   0.00  0.02  0.00  0.98  0.00  0.00  0.00  0.02  0.00
  WS02004402WS02004403    1.00   0.02  0.00  0.00  0.98  0.00  0.00  0.00  0.00  0.00
  WS02004139WS02001211    1.00   0.00  0.00  0.00  0.99  0.00  0.01  0.00  0.00  0.00
  WS02004138WS02004139    1.00   0.00  0.00  0.00  0.99  0.01  0.00  0.00  1.00  0.00
  WS02003067WS02003066    1.00   0.06  0.00  0.00  0.94  0.00  0.00  0.00  0.00  0.00
  WS02001213WS02003059    1.00   0.00  0.00  0.00  0.99  0.00  0.00  0.00  0.00  0.00
  WS02001212WS02001213    1.00   0.00  0.00  0.00  0.83  0.00  0.17  0.00  0.00  0.00
  WS02001211WS02001212    1.00   0.00  0.00  0.00  1.00  0.00  0.00  0.00  0.00  0.00
  WS02003072WS02003073    1.00   0.00  0.00  0.00  0.00  0.00  0.00  1.00  0.00  0.00
  WS02003069WS02003072    1.00   0.00  0.00  0.00  0.99  0.01  0.00  0.00  0.29  0.00
  WS02003060WS02003069    1.00   0.00  0.00  0.00  0.99  0.01  0.00  0.00  0.00  0.00
  WS02003059WS02003060    1.00   0.00  0.00  0.00  0.99  0.01  0.00  0.00  0.01  0.00
  HS02004901HS02004770    1.00   0.04  0.00  0.00  0.96  0.00  0.00  0.00  0.00  0.00
  HS02004876HS02004881    1.00   0.02  0.00  0.00  0.89  0.09  0.00  0.00  0.00  0.00
  HS02004870HS02004876    1.00   0.01  0.00  0.00  0.99  0.00  0.00  0.00  0.95  0.00
  HS02004842HS02004848    1.00   0.00  0.04  0.00  0.96  0.00  0.00  0.00  0.58  0.00
  HS02004837HS02004842    1.00   0.00  0.00  0.00  0.99  0.01  0.00  0.00  0.11  0.00
  HS02004830HS02004837    1.00   0.00  0.00  0.00  1.00  0.00  0.00  0.00  0.99  0.00
  HS02004824HS02004830    1.00   0.00  0.00  0.00  1.00  0.00  0.00  0.00  0.00  0.00
  HS02004817HS02004824    1.00   0.00  0.00  0.00  1.00  0.00  0.00  0.00  1.00  0.00
  HS02004770HS02004777    1.00   0.00  0.03  0.00  0.96  0.00  0.00  0.00  0.03  0.00
  HS02004799HS02004480    1.00   0.00  0.02  0.00  0.96  0.00  0.02  0.00  0.00  0.00
  HS02004792HS02004799    1.00   0.00  0.00  0.00  0.99  0.01  0.00  0.00  0.98  0.00
  HS02004788HS02004792    1.00   0.00  0.00  0.00  0.99  0.01  0.00  0.00  0.98  0.00
  HS02004785HS02004788    1.00   0.00  0.00  0.00  1.00  0.00  0.00  0.00  0.00  0.00
  HS02004777HS02004785    1.00   0.00  0.00  0.00  1.00  0.00  0.00  0.00  0.14  0.00
  HS02004480HS02004478    1.00   0.04  0.00  0.00  0.63  0.00  0.00  0.34  0.00  0.00
  HS02004479HS02004480    1.00   0.02  0.00  0.00  0.98  0.00  0.00  0.00  0.13  0.00
  HS02004862HS02004870    1.00   0.00  0.00  0.00  1.00  0.00  0.00  0.00  0.05  0.00
  HS02004848HS02004852    1.00   0.04  0.00  0.00  0.96  0.00  0.00  0.00  0.61  0.00
  HS02004856HS02004862    1.00   0.00  0.05  0.00  0.95  0.00  0.00  0.00  0.80  0.00
  HS02004852HS02004856    1.00   0.04  0.00  0.00  0.96  0.00  0.00  0.00  0.85  0.00
  HS02004802HS02004478    1.00   0.04  0.00  0.00  0.96  0.00  0.00  0.00  0.03  0.00
  HS02004478WS02006287    1.00   0.04  0.00  0.00  0.70  0.26  0.00  0.00  0.66  0.00
  HS02004817HS02004807    1.00   0.00  0.04  0.00  0.96  0.00  0.00  0.00  0.01  0.00
  HS02004807HS02004802    1.00   0.04  0.00  0.00  0.96  0.00  0.00  0.00  0.00  0.00
  YS02001759YS02001757    1.00   0.00  0.00  0.00  1.00  0.00  0.00  0.00  0.16  0.00
  YS02001762YS02001759    1.00   0.00  0.00  0.00  1.00  0.00  0.00  0.00  0.03  0.00
  YS02001765YS02001762    1.00   0.00  0.00  0.00  1.00  0.00  0.00  0.00  0.16  0.00
  YS02001770YS02001767    1.00   0.00  0.00  0.00  1.00  0.00  0.00  0.00  0.00  0.00
  YS02001774YS02001770    1.00   0.00  0.03  0.00  0.96  0.00  0.00  0.00  0.04  0.00
  YS02001779YS02001774    1.00   0.00  0.00  0.00  1.00  0.00  0.00  0.00  0.21  0.00
  YS02001649YS02001757    1.00   0.00  0.00  0.00  1.00  0.00  0.00  0.00  0.17  0.00
  YS02001767YS02001765    1.00   0.00  0.00  0.00  1.00  0.00  0.00  0.00  0.00  0.00
  YS02006561YS02001783    1.00   0.05  0.00  0.00  0.45  0.51  0.00  0.00  0.53  0.00
  YS02001783YS02001784    1.00   0.00  0.05  0.00  0.95  0.00  0.00  0.00  0.01  0.00
  YS02001784YS02001785    1.00   0.00  0.00  0.00  1.00  0.00  0.00  0.00  0.20  0.00
  YS02001788YS02001790    1.00   0.00  0.00  0.00  0.54  0.46  0.00  0.00  0.49  0.00
  YS02001790YS02001791    1.00   0.00  0.00  0.00  0.52  0.48  0.00  0.00  0.32  0.00
  YS02001791YS02001793    1.00   0.00  0.00  0.00  0.52  0.47  0.00  0.00  0.02  0.00
  YS02001910YS02001907    1.00   0.00  0.00  0.00  0.98  0.00  0.00  0.02  0.13  0.00
  YS02001786YS02001788    1.00   0.00  0.00  0.00  0.49  0.51  0.00  0.00  0.00  0.00
  YS02001915YS02001910    1.00   0.00  0.00  0.00  0.99  0.01  0.00  0.00  0.18  0.00
  YS02001918YS02001915    1.00   0.00  0.01  0.00  0.99  0.00  0.00  0.00  0.58  0.00
  YS02001923YS02001920    1.00   0.00  0.00  0.00  1.00  0.00  0.00  0.00  0.86  0.00
  YS02001926YS02001923    1.00   0.00  0.03  0.00  0.13  0.00  0.84  0.00  0.00  0.00
  YS02001929YS02001926    1.00   0.00  0.04  0.00  0.96  0.00  0.00  0.00  0.80  0.00
  YS02001920YS02001918    1.00   0.00  0.01  0.00  0.99  0.00  0.00  0.00  0.00  0.00
  YS02001629YS02163301    1.00   0.04  0.00  0.00  0.96  0.00  0.00  0.00  0.00  0.00
  YS02001619YS02001622    1.00   0.04  0.00  0.00  0.96  0.00  0.00  0.00  0.00  0.00
  YS02001622YS02001625    1.00   0.04  0.00  0.00  0.96  0.00  0.00  0.00  0.07  0.00
  YS02001625YS02001629    1.00   0.04  0.01  0.00  0.94  0.00  0.01  0.00  0.00  0.00
  YS02163301YS02001633    1.00   0.00  0.04  0.00  0.96  0.00  0.00  0.00  0.00  0.00
  YS02163601YS02164001    1.00   0.00  0.03  0.00  0.97  0.00  0.00  0.00  0.00  0.00
  YS02164001YS02001641    1.00   0.01  0.02  0.00  0.97  0.00  0.00  0.00  0.06  0.00
  YS02001641YS02001644    1.00   0.00  0.01  0.00  0.99  0.00  0.00  0.00  0.00  0.00
  YS02001647YS02001649    1.00   0.00  0.05  0.00  0.95  0.00  0.00  0.00  0.01  0.00
  YS02006553YS02006556    1.00   0.02  0.00  0.00  0.98  0.00  0.00  0.00  0.03  0.00
  YS02006556YS02006558    1.00   0.00  0.00  0.00  1.00  0.00  0.00  0.00  0.00  0.00
  YSB6556YSB1171          1.00   0.02  0.01  0.00  0.97  0.00  0.00  0.00  0.00  0.00
  YS02001907YS02006553    1.00   0.00  0.01  0.00  0.98  0.00  0.00  0.00  0.00  0.00
  YS02006558YS02006561    1.00   0.05  0.00  0.00  0.15  0.80  0.00  0.00  0.48  0.00
  YS02001633YS02163601    1.00   0.00  0.01  0.00  0.99  0.00  0.00  0.00  0.16  0.00
  YS02001644YS02001647    1.00   0.00  0.05  0.00  0.95  0.00  0.00  0.00  0.00  0.00
  YS02001745YS02001748    1.00   0.00  0.00  0.00  0.89  0.01  0.00  0.10  0.05  0.00
  YS02001748YS02001751    1.00   0.00  0.00  0.00  0.97  0.03  0.00  0.00  0.15  0.00
  YS02001751YS02001754    1.00   0.00  0.00  0.00  0.95  0.00  0.00  0.05  0.02  0.00
  YS02001754YS02001757    1.00   0.00  0.00  0.00  0.99  0.01  0.00  0.00  0.20  0.00
  YS02001882YS02001884    1.00   0.04  0.00  0.00  0.96  0.00  0.00  0.00  0.00  0.00
  YS02001884YS02001887    1.00   0.02  0.01  0.00  0.97  0.00  0.00  0.00  0.00  0.00
  YS02001890YS02001895    1.00   0.00  0.04  0.00  0.96  0.00  0.00  0.00  0.00  0.00
  YS02001895YS02001898    1.00   0.04  0.00  0.00  0.95  0.00  0.01  0.00  0.00  0.00
  YS02001898YS02001901    1.00   0.04  0.00  0.00  0.96  0.00  0.00  0.00  0.02  0.00
  YS02001901YS02001904    1.00   0.04  0.00  0.00  0.96  0.00  0.00  0.00  0.00  0.00
  YS02001904YS02001907    1.00   0.00  0.04  0.00  0.96  0.00  0.00  0.00  0.00  0.00
  YS02001887YS02001890    1.00   0.00  0.00  0.00  0.98  0.00  0.02  0.00  0.00  0.00
  YS02001652YS02001649    1.00   0.00  0.00  0.00  1.00  0.00  0.00  0.00  0.18  0.00
  YS02001655YS02001652    1.00   0.00  0.00  0.00  0.95  0.00  0.00  0.05  0.02  0.00
  YS02001658YS02001655    1.00   0.00  0.04  0.00  0.94  0.03  0.00  0.00  0.11  0.00
  YS02001661YS02001658    1.00   0.04  0.00  0.00  0.89  0.07  0.00  0.00  0.06  0.00
  YS02001664YS02001661    1.00   0.04  0.00  0.00  0.85  0.11  0.00  0.00  0.22  0.00
  YSB1154YSB6556          1.00   0.03  0.00  0.00  0.97  0.00  0.00  0.00  0.02  0.00
  YSB1174YSB1171          1.00   0.02  0.01  0.00  0.97  0.00  0.00  0.00  0.00  0.00
  YSB1171HS02004479       1.00   0.02  0.00  0.00  0.98  0.00  0.00  0.00  0.11  0.00
  HS02004881HS02006253    1.00   0.02  0.00  0.00  0.69  0.02  0.00  0.27  0.54  0.00
  YS02001793JiankangQianchi    1.00   0.00  0.00  0.00  0.66  0.34  0.00  0.00  0.11  0.00
  YS02001757CaochengTiaoxuchi    1.00   0.00  0.06  0.00  0.92  0.01  0.00  0.00  0.00  0.00
  WSF200WS02003060        1.00   0.00  0.06  0.00  0.90  0.04  0.00  0.00  0.23  0.00
  1                       1.00   0.00  0.00  0.00  0.00  1.00  0.00  0.00  0.20  0.00
  2                       1.00   0.82  0.00  0.00  0.00  0.18  0.00  0.00  0.01  0.00
  3                       1.00   0.06  0.00  0.00  0.00  0.94  0.00  0.00  0.02  0.00
  4                       1.00   1.00  0.00  0.00  0.00  0.00  0.00  0.00  0.00  0.00
  
  
  *************************
  Conduit Surcharge Summary
  *************************
  
  ----------------------------------------------------------------------------
                                                           Hours        Hours 
                         --------- Hours Full --------   Above Full   Capacity
  Conduit                Both Ends  Upstream  Dnstream   Normal Flow   Limited
  ----------------------------------------------------------------------------
  WS02006229WS02006228        1.68      1.74      1.68      4.26         1.68
  WS02006256WS02006235        6.05      6.05      7.83      4.99         0.01
  WS02006249WS02006248        0.01      0.01      0.01      3.91         0.01
  WS02006247WS02006245        0.01      0.01      0.01      4.29         0.01
  WS02006243WS02006242        0.11      0.11      0.92      0.01         0.01
  WS02006242WS02006240        0.85      0.85      0.97      0.01         0.01
  WS02006240WS02006239        0.88      0.88      0.94      0.01         0.01
  WS02006239WS02006238        1.01      1.01      1.04      0.01         0.01
  WS02006238WS02006235        1.04      1.04      1.07      0.01         0.01
  WS02006235WS02006234        0.97      0.97      1.03      6.09         0.01
  WS02006234WS02006232        1.01      1.01      1.14      0.01         0.01
  WS02006232WS02006231        0.87      0.87      1.14      0.01         0.01
  WS02006231WS02006230        0.65      0.65      0.91      6.05         0.01
  WS02006230WS02006229        2.14      3.94      2.14      6.12         2.14
  WS02006228WS02006109        1.71      1.92      1.71      4.88         1.71
  WS02006112WS02006115        0.01      0.01      1.13      0.01         0.01
  WS02006111WS02006112        0.01      0.01      4.42      0.01         0.01
  WS02006110WS02006113        0.01      0.01      1.81      0.01         0.01
  WS02006109WS02006110        1.06      1.06      1.92      1.06         0.01
  WS02004406WS02004407        0.01      0.01      0.43      0.01         0.01
  WS02004405WS02004406        0.43      0.58      0.43      1.10         0.43
  WS02004404WS02004405        0.58      0.73      0.58      6.00         0.58
  WS02004403WS02004404        0.01      0.01      0.73      0.01         0.01
  WS02003072WS02003073        0.01      0.01      0.01      5.06         0.01
  HS02004480HS02004478        0.01      0.01      0.01      0.25         0.01
  YS02001759YS02001757        5.66      5.66      5.74      0.01         0.01
  YS02001762YS02001759        5.64      5.64      5.66      0.01         0.01
  YS02001765YS02001762        5.61      5.61      5.64      0.01         0.01
  YS02001770YS02001767        5.58      5.58      5.58      0.32         0.76
  YS02001774YS02001770        5.56      5.56      5.63      0.01         0.01
  YS02001779YS02001774        5.40      5.40      5.63      0.01         0.01
  YS02001649YS02001757        5.64      5.64      5.74      0.01         0.01
  YS02001767YS02001765        5.58      5.58      5.61      0.01         0.01
  YS02006561YS02001783        0.53      0.53      1.12      0.01         0.01
  YS02001783YS02001784        1.09      1.12      1.14      1.16         0.90
  YS02001784YS02001785        0.97      1.14      0.97      2.10         0.97
  YS02001788YS02001790        0.96      0.96      2.29      0.01         0.01
  YS02001790YS02001791        2.29      2.29      2.61      0.49         0.38
  YS02001791YS02001793        2.61      2.61      3.17      0.01         0.01
  YS02001910YS02001907        0.95      0.95      1.48      0.01         0.01
  YS02001786YS02001788        0.96      0.97      0.96      1.66         0.96
  YS02001915YS02001910        0.70      0.70      0.95      0.01         0.01
  YS02001918YS02001915        0.41      0.41      0.70      0.01         0.01
  YS02001923YS02001920        0.17      0.17      0.45      0.01         0.01
  YS02001926YS02001923        0.01      0.01      0.01      0.01         0.01
  YS02001929YS02001926        0.01      0.01      0.01      0.01         0.01
  YS02001920YS02001918        0.41      0.41      0.45      0.01         0.01
  YS02001629YS02163301        5.56      5.56      5.58      0.01         0.01
  YS02001619YS02001622        5.22      5.22      5.25      0.01         0.01
  YS02001622YS02001625        5.25      5.25      5.43      0.01         0.01
  YS02001625YS02001629        5.22      5.22      5.43      0.01         0.01
  YS02163301YS02001633        5.58      5.58      5.61      0.01         0.01
  YS02163601YS02164001        5.61      5.61      5.64      0.01         0.01
  YS02164001YS02001641        5.61      5.61      5.62      0.01         0.02
  YS02001641YS02001644        5.62      5.62      5.62      1.21         1.25
  YS02001647YS02001649        5.42      5.42      5.64      0.01         0.01
  YS02006553YS02006556        1.20      1.20      1.53      0.01         0.01
  YS02006556YS02006558        1.37      1.37      1.60      0.01         0.01
  YS02001907YS02006553        2.09      2.09      2.30      0.01         0.01
  YS02006558YS02006561        0.70      1.16      0.70      1.94         0.70
  YS02001633YS02163601        5.60      5.60      5.64      0.01         0.01
  YS02001644YS02001647        5.42      5.42      5.62      0.01         0.01
  YS02001745YS02001748        0.01      0.01      5.05      0.01         0.01
  YS02001748YS02001751        5.10      5.10      5.20      0.01         0.01
  YS02001751YS02001754        5.20      5.20      5.40      0.01         0.01
  YS02001754YS02001757        5.42      5.42      5.74      0.01         0.01
  YS02001882YS02001884        0.72      0.72      0.76      0.01         0.01
  YS02001884YS02001887        0.83      0.83      0.87      0.01         0.01
  YS02001890YS02001895        0.68      0.68      0.98      0.01         0.01
  YS02001895YS02001898        0.65      0.65      0.68      0.01         0.01
  YS02001898YS02001901        0.68      0.68      0.82      0.01         0.01
  YS02001901YS02001904        0.79      0.79      0.82      0.01         0.01
  YS02001904YS02001907        0.79      0.79      1.55      0.01         0.01
  YS02001887YS02001890        0.90      0.90      0.94      0.01         0.01
  YS02001652YS02001649        5.42      5.42      5.64      0.01         0.01
  YS02001655YS02001652        5.25      5.25      5.41      0.01         0.01
  YS02001658YS02001655        5.08      5.08      5.25      0.01         0.01
  YS02001661YS02001658        0.22      0.22      5.08      0.01         0.01
  YS02001664YS02001661        0.01      0.01      1.23      0.01         0.01
  YS02001793JiankangQianchi        3.12      3.12      3.94      0.01         0.01
  YS02001757CaochengTiaoxuchi        4.90      4.90      5.74      0.01         0.01
  3                           0.01      0.01      0.01      0.01         0.01
  
  
  ***************
  Pumping Summary
  ***************
  
  ---------------------------------------------------------------------------------------------------------
                                                  Min       Avg       Max     Total     Power    % Time Off
                        Percent   Number of      Flow      Flow      Flow    Volume     Usage    Pump Curve
  Pump                 Utilized   Start-Ups       LPS       LPS       LPS  10^6 ltr     Kw-hr    Low   High
  ---------------------------------------------------------------------------------------------------------
  CC-Pump-1               63.05           1      0.00    170.60    200.00     2.980      3.94    0.0   12.4
  CC-Pump-2                5.60           2      0.00     84.25    199.93     0.133      0.14    0.0   24.1
  JK-Pump-1               78.72           5      0.00    195.89    300.00     3.069     36.53    0.0    0.0
  JK-Pump-2              100.00           1      0.00    228.23    300.00     5.000     49.70    0.0    0.0
  XR-Pump-1               46.80           5      0.00     75.69     95.00     0.969      6.49    0.0    0.0
  XR-Pump-2               63.82           4      0.00     75.16     95.00     1.397     19.76    0.0    0.0
  XR-Pump-3              100.00           1      0.00     92.27     95.00     2.565     25.27    0.0    0.0
  XR-Pump-4              100.00           2      0.00     85.42     95.00     2.451     25.69    0.0    0.0
  

  Analysis begun on:  Thu Dec 23 16:01:46 2021
  Analysis ended on:  Thu Dec 23 16:01:50 2021
  Total elapsed time: 00:00:04