
  EPA STORM WATER MANAGEMENT MODEL - VERSION 5.1 (Build 5.3.0.dev0)
  --------------------------------------------------------------

  WARNING 04: minimum elevation drop used for Conduit WS02004404WS02004405
  WARNING 03: negative offset ignored for Link YS02001904YS02001907
  
  *********************************************************
  NOTE: The summary statistics displayed in this report are
  based on results found at every computational time step,  
  not just on results from each reporting time step.
  *********************************************************
  
  ****************
  Analysis Options
  ****************
  Flow Units ............... LPS
  Process Models:
    Rainfall/Runoff ........ YES
    RDII ................... NO
    Snowmelt ............... NO
    Groundwater ............ NO
    Flow Routing ........... YES
    Ponding Allowed ........ NO
    Water Quality .......... NO
  Infiltration Method ...... HORTON
  Flow Routing Method ...... DYNWAVE
  Surcharge Method ......... EXTRAN
  Starting Date ............ 08/28/2015 08:00:00
  Ending Date .............. 08/28/2015 15:50:00
  Antecedent Dry Days ...... 8.0
  Report Time Step ......... 00:01:00
  Wet Time Step ............ 00:01:00
  Dry Time Step ............ 00:01:00
  Routing Time Step ........ 5.00 sec
  Variable Time Step ....... YES
  Maximum Trials ........... 8
  Number of Threads ........ 4
  Head Tolerance ........... 0.001500 m
  
  
  **************************        Volume         Depth
  Runoff Quantity Continuity     hectare-m            mm
  **************************     ---------       -------
  Total Precipitation ......         5.556        12.164
  Evaporation Loss .........         0.000         0.000
  Infiltration Loss ........         1.427         3.124
  Surface Runoff ...........         3.072         6.726
  Final Storage ............         1.058         2.316
  Continuity Error (%) .....        -0.016
  
  
  **************************        Volume        Volume
  Flow Routing Continuity        hectare-m      10^6 ltr
  **************************     ---------     ---------
  Dry Weather Inflow .......         0.616         6.165
  Wet Weather Inflow .......         3.071        30.709
  Groundwater Inflow .......         0.000         0.000
  RDII Inflow ..............         0.000         0.000
  External Inflow ..........         0.102         1.024
  External Outflow .........         2.246        22.465
  Flooding Loss ............         1.091        10.911
  Evaporation Loss .........         0.000         0.000
  Exfiltration Loss ........         0.000         0.000
  Initial Stored Volume ....         0.076         0.761
  Final Stored Volume ......         0.643         6.430
  Continuity Error (%) .....        -2.968
  
  
  *************************
  Highest Continuity Errors
  *************************
  Node HS02004842 (16.24%)
  Node JK-storage (-12.91%)
  Node YS02001884 (11.57%)
  Node YSB1171 (3.12%)
  Node HS02004817 (2.99%)
  
  
  ***************************
  Time-Step Critical Elements
  ***************************
  Link 3 (57.83%)
  Link WS02006252WS02006251 (34.70%)
  Link WS02006238WS02006235 (1.93%)
  Link WS02006280WS02006229 (1.41%)
  
  
  ********************************
  Highest Flow Instability Indexes
  ********************************
  Link YS02163601YS02164001 (37)
  Link YS02163301YS02001633 (37)
  Link YS02001629YS02163301 (36)
  Link WS02006113WS02006111 (36)
  Link YS02001619YS02001622 (35)
  
  
  *************************
  Routing Time Step Summary
  *************************
  Minimum Time Step           :     0.50 sec
  Average Time Step           :     0.77 sec
  Maximum Time Step           :     5.00 sec
  Percent in Steady State     :    -0.00
  Average Iterations per Step :     4.44
  Percent Not Converging      :    19.47
  
  
  ***************************
  Subcatchment Runoff Summary
  ***************************
  
  ------------------------------------------------------------------------------------------------------------------------------
                            Total      Total      Total      Total     Imperv       Perv      Total       Total     Peak  Runoff
                           Precip      Runon       Evap      Infil     Runoff     Runoff     Runoff      Runoff   Runoff   Coeff
  Subcatchment                 mm         mm         mm         mm         mm         mm         mm    10^6 ltr      LPS
  ------------------------------------------------------------------------------------------------------------------------------
  sub0                      12.16       0.00       0.00       0.85      10.05       0.00      10.05        0.01     1.91   0.826
  sub1                      12.16       0.00       0.00       1.34       9.56       0.00       9.56        0.06    14.15   0.786
  sub2                      12.16       0.00       0.00       4.50       6.75       0.00       6.75        0.06    13.75   0.555
  sub3                      12.16       0.00       0.00       4.50       6.71       0.00       6.71        0.15    32.07   0.552
  sub4                      12.16       0.00       0.00       1.34       9.40       0.00       9.40        0.20    40.20   0.773
  sub5                      12.16       0.00       0.00       0.85       9.99       0.00       9.99        0.11    25.19   0.822
  sub7                      12.16       0.00       0.00       1.09       9.81       0.00       9.81        0.03     7.55   0.807
  sub8                      12.16       0.00       0.00       1.09       9.80       0.00       9.80        0.06    14.17   0.806
  sub9                      12.16       0.00       0.00       1.09       9.80       0.00       9.80        0.05    10.64   0.806
  sub10                     12.16       0.00       0.00       0.97       9.89       0.00       9.89        0.11    24.40   0.813
  sub11                     12.16       0.00       0.00       0.97       9.91       0.00       9.91        0.12    26.15   0.815
  sub12                     12.16       0.00       0.00       1.58       9.39       0.00       9.39        0.08    19.06   0.772
  sub14                     12.16       0.00       0.00       1.09       9.80       0.00       9.80        0.09    21.02   0.805
  sub15                     12.16       0.00       0.00       3.65       7.53       0.00       7.53        0.13    29.11   0.619
  sub16                     12.16       0.00       0.00       4.01       7.23       0.00       7.23        0.08    17.47   0.594
  sub17                     12.16       0.00       0.00       3.89       7.34       0.00       7.34        0.06    14.47   0.603
  sub22                     12.16       0.00       0.00       5.23       6.14       0.00       6.14        0.39    88.27   0.505
  sub23                     12.16       0.00       0.00       4.50       6.79       0.00       6.79        0.32    73.89   0.558
  sub60                     12.16       0.00       0.00       1.46       7.71       0.00       7.71        2.34   297.17   0.634
  sub61                     12.16       0.00       0.00       2.07       7.87       0.00       7.87        2.43   359.80   0.647
  sub62                     12.16       0.00       0.00       0.97       8.55       0.00       8.55        2.63   372.87   0.703
  sub63                     12.16       0.00       0.00       3.53       6.89       0.00       6.89        2.09   327.80   0.567
  sub64                     12.16       0.00       0.00       1.82       7.40       0.00       7.40        2.25   282.66   0.608
  sub65                     12.16       0.00       0.00       1.58       7.52       0.00       7.52        2.31   287.20   0.618
  sub66                     12.16       0.00       0.00       3.53       6.36       0.00       6.36        1.95   257.27   0.523
  sub67                     12.16       0.00       0.00       0.97       9.05       0.00       9.05        2.79   452.90   0.744
  sub68                     12.16       0.00       0.00       1.70       8.28       0.00       8.28        2.55   391.99   0.681
  sub69                     12.16       0.00       0.00       1.82       8.61       0.00       8.61        2.01   355.79   0.708
  sub70                     12.16       8.79       0.00       7.03      11.43       0.10      11.53        2.64   335.00   0.550
  sub71                     12.16       0.00       0.00       0.97       8.31       0.00       8.31        1.96   263.63   0.683
  sub72                     12.16       0.00       0.00       0.85       6.56       0.00       6.56        1.34   129.40   0.540
  sub73                     12.16      11.23       0.00       7.88      12.47       0.08      12.54        2.95   300.52   0.536
  sub74                     12.16       0.00       0.00       9.12       2.57       0.00       2.57        1.03   189.59   0.211
  
  
  ******************
  Node Depth Summary
  ******************
  
  ---------------------------------------------------------------------------------
                                 Average  Maximum  Maximum  Time of Max    Reported
                                   Depth    Depth      HGL   Occurrence   Max Depth
  Node                 Type       Meters   Meters   Meters  days hr:min      Meters
  ---------------------------------------------------------------------------------
  WS02001211           JUNCTION     0.69     0.76     5.60     0  07:50        0.76
  WS02001212           JUNCTION     0.41     0.47     5.53     0  03:08        0.47
  WS02001213           JUNCTION     0.65     0.74     5.50     0  03:07        0.74
  WS02003069           JUNCTION     0.47     0.59     5.18     0  03:07        0.59
  WS02003072           JUNCTION     0.53     0.65     5.02     0  03:08        0.65
  WS02003073           JUNCTION     0.32     0.40     4.47     0  03:08        0.40
  WS02003060           JUNCTION     0.42     0.53     5.46     0  03:06        0.53
  WS02003066           JUNCTION     0.24     0.33     5.88     0  03:06        0.33
  WS02003059           JUNCTION     0.71     0.80     5.49     0  03:07        0.80
  WS02003067           JUNCTION     0.60     0.75     6.07     0  03:05        0.75
  WS02004401           JUNCTION     0.71     0.98     6.98     0  03:03        0.98
  WS02004402           JUNCTION     0.74     1.00     6.96     0  03:03        1.00
  WS02004403           JUNCTION     0.76     1.00     6.93     0  03:03        1.00
  WS02004404           JUNCTION     0.83     1.06     6.91     0  03:03        1.06
  WS02004406           JUNCTION     0.84     1.03     6.86     0  03:03        1.03
  WS02004409           JUNCTION     0.53     0.76     6.53     0  03:04        0.76
  WS02004410           JUNCTION     0.54     0.76     6.48     0  03:05        0.76
  WS02004411           JUNCTION     0.56     0.77     6.45     0  03:05        0.77
  WS02004412           JUNCTION     0.57     0.76     6.40     0  03:05        0.76
  WS02004413           JUNCTION     0.73     0.92     6.39     0  03:05        0.92
  WS02004405           JUNCTION     0.83     1.05     6.90     0  03:02        1.05
  WS02006109           JUNCTION     0.80     1.12     7.73     0  03:01        1.10
  WS02006110           JUNCTION     0.78     1.03     7.62     0  03:01        1.02
  WS02006111           JUNCTION     0.23     0.36     7.07     0  03:03        0.36
  WS02006112           JUNCTION     0.89     1.20     7.08     0  03:03        1.19
  WS02006113           JUNCTION     0.36     0.51     7.41     0  03:02        0.51
  WS02006115           JUNCTION     0.61     0.89     7.03     0  03:03        0.89
  WS02006116           JUNCTION     0.69     0.97     7.01     0  03:04        0.97
  WS02006230           JUNCTION     0.78     1.17     7.92     0  03:02        1.17
  WS02006231           JUNCTION     0.53     0.83     7.95     0  03:02        0.83
  WS02006232           JUNCTION     0.66     0.95     7.99     0  03:02        0.94
  WS02006234           JUNCTION     0.58     0.86     8.02     0  03:02        0.86
  WS02006235           JUNCTION     0.61     0.89     8.05     0  03:01        0.88
  WS02006238           JUNCTION     0.64     0.91     8.06     0  03:02        0.90
  WS02006240           JUNCTION     0.53     0.79     8.08     0  03:02        0.79
  WS02006242           JUNCTION     0.58     0.84     8.11     0  03:02        0.84
  WS02006243           JUNCTION     0.45     0.71     8.13     0  03:01        0.71
  WS02006245           JUNCTION     0.43     0.66     8.15     0  03:02        0.66
  WS02006247           JUNCTION     0.44     0.66     8.16     0  03:02        0.66
  WS02006248           JUNCTION     0.38     0.58     8.17     0  03:02        0.58
  WS02006249           JUNCTION     0.41     0.59     8.19     0  04:01        0.59
  WS02006239           JUNCTION     0.59     0.86     8.07     0  03:02        0.86
  WS02006251           JUNCTION     0.39     0.61     8.28     0  04:00        0.61
  WS02006252           JUNCTION     0.32     0.59     8.83     0  03:59        0.58
  WS02006253           JUNCTION     0.42     0.64     8.28     0  04:00        0.63
  WS02006256           JUNCTION     1.11     2.35     9.28     0  00:00        1.22
  WS02004138           JUNCTION     0.16     0.19     7.44     0  07:42        0.19
  WS02004407           JUNCTION     0.24     0.33     6.64     0  03:04        0.33
  WS02006228           JUNCTION     0.81     1.18     7.83     0  03:02        1.17
  WS02006229           JUNCTION     0.79     1.19     7.88     0  03:02        1.18
  WS02006280           JUNCTION     0.08     0.19     8.46     0  03:02        0.19
  WS02006284           JUNCTION     0.38     0.55     8.95     0  03:02        0.55
  WS02006287           JUNCTION     0.11     0.28     9.24     0  03:01        0.28
  WSF200               JUNCTION     0.24     0.35     5.59     0  03:06        0.35
  HS02004901           JUNCTION     0.14     0.28    10.10     0  03:01        0.28
  HS02004881           JUNCTION     0.01     0.04     9.07     0  03:01        0.04
  HS02004876           JUNCTION     0.05     0.12     9.15     0  03:01        0.12
  HS02004870           JUNCTION     0.02     0.06     9.35     0  03:01        0.06
  HS02004862           JUNCTION     0.02     0.07     9.46     0  03:01        0.07
  HS02004856           JUNCTION     0.08     0.13     9.55     0  03:01        0.13
  HS02004852           JUNCTION     0.01     0.05     9.56     0  03:01        0.05
  HS02004848           JUNCTION     0.01     0.05     9.65     0  03:01        0.05
  HS02004842           JUNCTION     0.34     0.38     9.65     0  03:01        0.38
  HS02004837           JUNCTION     0.03     0.07     9.65     0  03:01        0.07
  HS02004830           JUNCTION     0.04     0.08     9.55     0  03:01        0.08
  HS02004824           JUNCTION     0.03     0.06     9.46     0  03:01        0.06
  HS02004817           JUNCTION     0.45     0.60     9.44     0  03:01        0.60
  HS02004807           JUNCTION     0.14     0.27     9.44     0  03:01        0.27
  HS02004802           JUNCTION     0.17     0.30     9.43     0  03:01        0.30
  HS02004799           JUNCTION     0.13     0.33     9.54     0  03:01        0.33
  HS02004792           JUNCTION     0.04     0.14     9.66     0  03:01        0.14
  HS02004788           JUNCTION     0.03     0.10    10.00     0  03:01        0.10
  HS02004785           JUNCTION     0.06     0.17    10.07     0  03:01        0.17
  HS02004777           JUNCTION     0.16     0.30    10.10     0  03:01        0.30
  HS02004770           JUNCTION     0.13     0.27    10.10     0  03:01        0.27
  HS02004480           JUNCTION     0.09     0.26     9.50     0  03:01        0.26
  HS02004479           JUNCTION     0.13     0.30     9.50     0  03:01        0.30
  HS02004478           JUNCTION     0.07     0.18     9.41     0  03:01        0.18
  YS02001745           JUNCTION     0.69     0.87     8.39     0  03:23        0.87
  YS02001748           JUNCTION     1.08     2.27     9.35     0  02:41        1.32
  YS02001751           JUNCTION     1.26     2.17     9.05     0  02:43        1.53
  YS02001754           JUNCTION     1.52     2.17     8.78     0  02:43        1.81
  YS02001762           JUNCTION     1.72     2.09     8.49     0  02:43        2.02
  YS02001765           JUNCTION     1.67     2.02     8.47     0  02:43        1.97
  YS02001767           JUNCTION     1.64     1.98     8.47     0  02:43        1.93
  YS02001770           JUNCTION     1.63     1.95     8.44     0  02:41        1.90
  YS02001774           JUNCTION     1.70     2.01     8.44     0  02:43        1.97
  YS02001779           JUNCTION     1.45     1.68     8.37     0  02:40        1.68
  YS02001882           JUNCTION     0.55     1.70     8.42     0  02:57        1.60
  YS02001884           JUNCTION     0.64     1.79     8.40     0  02:57        1.70
  YS02001759           JUNCTION     1.76     2.12     8.49     0  02:43        2.06
  YS02001887           JUNCTION     0.72     1.83     8.37     0  02:57        1.78
  YS02001890           JUNCTION     0.75     1.81     8.32     0  02:57        1.80
  YS02001898           JUNCTION     0.52     1.58     8.31     0  02:57        1.55
  YS02001901           JUNCTION     0.64     1.68     8.29     0  02:57        1.66
  YS02001904           JUNCTION     0.61     1.64     8.27     0  02:57        1.63
  YS02001907           JUNCTION     0.94     1.96     8.25     0  02:57        1.96
  YS02001910           JUNCTION     0.73     1.81     8.32     0  02:59        1.77
  YS02001915           JUNCTION     0.53     1.65     8.37     0  02:59        1.60
  YS02001918           JUNCTION     0.27     1.39     8.46     0  02:59        1.28
  YS02001619           JUNCTION     1.23     1.61     8.54     0  02:34        1.47
  YS02001629           JUNCTION     1.59     1.85     8.40     0  02:39        1.85
  YS02001641           JUNCTION     1.69     1.99     8.42     0  02:43        1.93
  YS02001644           JUNCTION     1.69     1.92     8.35     0  02:41        1.92
  YS02001652           JUNCTION     1.53     2.16     8.76     0  02:55        1.99
  YS02001655           JUNCTION     1.29     2.20     9.05     0  02:40        1.85
  YS02001920           JUNCTION     0.37     1.49     8.50     0  02:59        1.36
  YS02001923           JUNCTION     0.21     1.28     8.54     0  02:59        1.12
  YS02001926           JUNCTION     0.26     1.14     8.58     0  02:59        0.97
  YS02001929           JUNCTION     0.14     0.79     8.49     0  03:00        0.79
  YS02001658           JUNCTION     1.02     2.30     9.44     0  02:40        1.61
  YS02001661           JUNCTION     0.80     2.46     9.86     0  02:55        1.28
  YS02001664           JUNCTION     0.35     0.57     8.49     0  02:54        0.56
  YS02001622           JUNCTION     1.26     1.62     8.52     0  02:34        1.49
  YS02001633           JUNCTION     1.68     2.00     8.45     0  02:44        1.96
  YS02001649           JUNCTION     1.73     2.05     8.44     0  02:40        2.05
  YS02001757           JUNCTION     1.85     2.21     8.47     0  02:42        2.17
  YS02001895           JUNCTION     0.51     1.57     8.32     0  02:57        1.55
  YS02001625           JUNCTION     1.54     1.78     8.38     0  02:36        1.78
  YS02163301           JUNCTION     1.62     1.92     8.43     0  02:44        1.89
  YS02163601           JUNCTION     1.73     2.07     8.47     0  02:43        2.01
  YS02164001           JUNCTION     1.67     2.01     8.46     0  02:43        1.94
  YS02001647           JUNCTION     1.52     1.81     8.42     0  02:42        1.79
  YSB1154              JUNCTION     0.27     0.45     9.51     0  03:01        0.45
  YSB6556              JUNCTION     0.16     0.34     9.51     0  03:01        0.34
  YSB1174              JUNCTION     0.22     0.40     9.51     0  03:01        0.40
  YSB1171              JUNCTION     0.42     0.60     9.51     0  03:01        0.60
  YS02006553           JUNCTION     0.95     2.08     8.37     0  02:57        1.96
  YS02006561           JUNCTION     0.31     1.76     8.42     0  02:57        1.07
  YS02006556           JUNCTION     0.91     2.19     8.50     0  02:57        1.91
  YS02006558           JUNCTION     0.95     2.26     8.52     0  02:57        1.95
  YS02001783           JUNCTION     0.55     1.88     8.02     0  02:57        1.46
  YS02001784           JUNCTION     0.57     1.87     7.94     0  02:56        1.40
  YS02001786           JUNCTION     0.52     2.19     8.22     0  02:56        1.25
  YS02001788           JUNCTION     0.46     2.08     8.06     0  02:56        1.12
  YS02001790           JUNCTION     0.60     1.96     7.60     0  02:56        1.29
  YS02001791           JUNCTION     0.58     1.78     7.25     0  02:56        1.27
  YS02001793           JUNCTION     0.79     1.84     6.67     0  02:56        1.80
  WS02004139           JUNCTION     0.63     0.71     5.62     0  07:50        0.71
  WSC                  OUTFALL      0.32     0.40     1.07     0  03:08        0.40
  3                    OUTFALL      0.14     0.23     6.23     0  00:00        0.21
  4                    OUTFALL      0.02     0.09     7.09     0  04:01        0.09
  5                    OUTFALL      0.00     0.00     5.00     0  00:00        0.00
  JK-storage           STORAGE      2.74     5.80     6.60     0  02:57        5.80
  CC-storage           STORAGE      1.07     1.37     8.37     0  03:26        1.37
  XR-storage           STORAGE      6.90     7.72     5.72     0  02:54        7.72
  
  
  *******************
  Node Inflow Summary
  *******************
  
  -------------------------------------------------------------------------------------------------
                                  Maximum  Maximum                  Lateral       Total        Flow
                                  Lateral    Total  Time of Max      Inflow      Inflow     Balance
                                   Inflow   Inflow   Occurrence      Volume      Volume       Error
  Node                 Type           LPS      LPS  days hr:min    10^6 ltr    10^6 ltr     Percent
  -------------------------------------------------------------------------------------------------
  WS02001211           JUNCTION      7.35   387.32     0  07:50       0.207        7.61       0.538
  WS02001212           JUNCTION      0.00   386.88     0  07:49           0        7.56       0.312
  WS02001213           JUNCTION      0.00   386.39     0  07:49           0        7.54       0.338
  WS02003069           JUNCTION      0.32   974.02     0  03:07     0.00902        16.1       0.185
  WS02003072           JUNCTION      0.00   973.83     0  03:07           0        16.1       0.227
  WS02003073           JUNCTION      1.82   975.57     0  03:08      0.0514        16.1       0.253
  WS02003060           JUNCTION     16.53   974.06     0  03:06       0.466        16.1       0.177
  WS02003066           JUNCTION      0.00   666.33     0  03:06           0        8.21       0.044
  WS02003059           JUNCTION      0.00   385.48     0  07:49           0        7.52       0.528
  WS02003067           JUNCTION      0.00   666.17     0  03:05           0        8.21       0.096
  WS02004401           JUNCTION      0.00   670.29     0  03:02           0        8.42       0.240
  WS02004402           JUNCTION      0.00   667.94     0  03:03           0         8.4       0.227
  WS02004403           JUNCTION      0.00   667.07     0  03:03           0        8.38       0.207
  WS02004404           JUNCTION      0.16   667.22     0  03:04     0.00457        8.37       0.157
  WS02004406           JUNCTION      0.00   667.34     0  03:04           0        8.34       0.382
  WS02004409           JUNCTION      0.00   667.19     0  03:04           0         8.3       0.162
  WS02004410           JUNCTION      0.00   666.91     0  03:04           0        8.29       0.183
  WS02004411           JUNCTION      0.00   666.48     0  03:05           0        8.27       0.189
  WS02004412           JUNCTION      0.00   666.45     0  03:05           0        8.26       0.208
  WS02004413           JUNCTION      0.00   666.27     0  03:05           0        8.24       0.316
  WS02004405           JUNCTION      0.04   667.30     0  03:04     0.00107        8.36       0.238
  WS02006109           JUNCTION      1.23   659.93     0  03:01      0.0347        8.48       0.254
  WS02006110           JUNCTION      0.00   659.91     0  03:01           0        8.46       0.235
  WS02006111           JUNCTION      0.00   694.01     0  03:03           0        8.43       0.052
  WS02006112           JUNCTION     14.47   673.26     0  03:01      0.0629        8.49       0.320
  WS02006113           JUNCTION      0.00   661.94     0  03:02           0        8.44       0.114
  WS02006115           JUNCTION      0.00   673.87     0  03:01           0        8.46       0.225
  WS02006116           JUNCTION      0.00   671.80     0  03:01           0        8.44       0.217
  WS02006230           JUNCTION     10.28   400.42     0  05:32        0.29         6.6       0.193
  WS02006231           JUNCTION      0.00   391.66     0  05:31           0        6.32       0.198
  WS02006232           JUNCTION      0.00   391.79     0  05:31           0        6.34       0.260
  WS02006234           JUNCTION      0.00   393.59     0  05:31           0        6.34       0.129
  WS02006235           JUNCTION      0.00   393.34     0  05:30           0        6.38       0.172
  WS02006238           JUNCTION      0.00   299.23     0  07:02           0         4.1       0.191
  WS02006240           JUNCTION      0.00   312.37     0  06:41           0         4.1       0.290
  WS02006242           JUNCTION      0.00   323.55     0  06:41           0         4.1       0.352
  WS02006243           JUNCTION      0.00   331.57     0  06:41           0         4.1      -0.053
  WS02006245           JUNCTION      0.00   338.58     0  06:40           0        4.11       0.247
  WS02006247           JUNCTION      0.00   344.90     0  06:40           0        4.11       0.147
  WS02006248           JUNCTION      0.00   350.18     0  06:40           0        4.11       0.059
  WS02006249           JUNCTION      0.00   396.12     0  04:00           0        4.35       0.292
  WS02006239           JUNCTION      0.00   304.19     0  07:02           0         4.1       0.285
  WS02006251           JUNCTION      0.08   400.24     0  04:00     0.00217        4.39       0.191
  WS02006252           JUNCTION      0.00   399.99     0  07:00           0           4       0.011
  WS02006253           JUNCTION      1.91    81.00     0  03:01     0.00814       0.389       0.984
  WS02006256           JUNCTION      0.00   600.00     0  00:00           0        8.48       0.026
  WS02004138           JUNCTION      0.00   380.00     0  07:40           0        7.44       0.078
  WS02004407           JUNCTION      0.00   667.40     0  03:04           0        8.31       0.079
  WS02006228           JUNCTION      0.00   658.75     0  03:01           0        8.46       0.187
  WS02006229           JUNCTION      0.00   657.77     0  03:02           0        8.47       0.133
  WS02006280           JUNCTION      0.00   375.54     0  03:02           0        1.89       0.004
  WS02006284           JUNCTION      0.10   375.54     0  03:02      0.0027        1.89       0.064
  WS02006287           JUNCTION      0.00   375.27     0  03:01           0        1.89       0.037
  WSF200               JUNCTION      0.00   666.39     0  03:06           0         8.2       0.039
  HS02004901           JUNCTION     17.47    17.47     0  03:01      0.0757      0.0759       2.380
  HS02004881           JUNCTION      7.55    79.19     0  03:01      0.0331       0.357       0.087
  HS02004876           JUNCTION     14.15    72.10     0  03:01      0.0636       0.324       0.171
  HS02004870           JUNCTION     14.17    58.27     0  03:01      0.0626       0.261       0.043
  HS02004862           JUNCTION     13.95    44.46     0  03:01      0.0685       0.198       0.089
  HS02004856           JUNCTION     10.64    30.79     0  03:01      0.0471       0.131       1.115
  HS02004852           JUNCTION      0.00    20.44     0  03:01           0       0.084       0.069
  HS02004848           JUNCTION     32.07    32.07     0  03:01       0.151       0.151       0.033
  HS02004842           JUNCTION      0.00    11.42     0  03:01           0      0.0801      19.388
  HS02004837           JUNCTION     30.75    41.91     0  03:01       0.288       0.355       0.230
  HS02004830           JUNCTION      0.15    41.84     0  03:01     0.00423       0.346       0.358
  HS02004824           JUNCTION     40.25    81.79     0  03:01       0.197       0.542       0.100
  HS02004817           JUNCTION      0.60    82.18     0  03:01      0.0169       0.558       3.079
  HS02004807           JUNCTION     26.15   107.25     0  03:01       0.115       0.657       0.656
  HS02004802           JUNCTION      0.00   106.49     0  03:01           0       0.653       0.620
  HS02004799           JUNCTION     21.02   227.51     0  03:01      0.0932        1.06       0.236
  HS02004792           JUNCTION     88.55   207.33     0  03:01       0.396       0.966       0.043
  HS02004788           JUNCTION     30.78   119.38     0  03:01       0.177       0.571       0.068
  HS02004785           JUNCTION      0.15    89.79     0  03:01     0.00423       0.396       0.125
  HS02004777           JUNCTION      0.03    90.24     0  03:01    0.000846       0.397       1.326
  HS02004770           JUNCTION     73.89    90.93     0  03:01       0.324       0.398       0.787
  HS02004480           JUNCTION      0.00   269.27     0  03:01           0        1.25       0.099
  HS02004479           JUNCTION      0.00    42.82     0  03:02           0       0.204       0.361
  HS02004478           JUNCTION      0.00   375.17     0  03:01           0        1.89       0.018
  YS02001745           JUNCTION    297.18   398.22     0  02:42        2.34        2.35       0.469
  YS02001748           JUNCTION      0.04   593.88     0  02:41     0.00127        2.34       0.973
  YS02001751           JUNCTION      0.01   310.75     0  03:01     0.00031         2.3       1.030
  YS02001754           JUNCTION      0.26   310.86     0  03:01     0.00733        2.29       1.080
  YS02001762           JUNCTION      0.00   334.76     0  02:54           0        1.82       1.161
  YS02001765           JUNCTION      0.00   334.84     0  02:54           0        1.83       1.337
  YS02001767           JUNCTION      0.54   334.82     0  02:54      0.0151        1.85       1.953
  YS02001770           JUNCTION    373.02   373.02     0  03:01        2.63        2.68       1.208
  YS02001774           JUNCTION      0.00   291.55     0  03:28           0       0.862       2.997
  YS02001779           JUNCTION      0.01   291.72     0  03:28    0.000141       0.831       1.913
  YS02001882           JUNCTION      0.00    16.74     0  02:51           0      0.0171      15.104
  YS02001884           JUNCTION      0.00    24.82     0  02:49           0      0.0525      13.090
  YS02001759           JUNCTION    359.84   661.46     0  02:55        2.43        4.18       0.550
  YS02001887           JUNCTION    453.35   453.41     0  03:01         2.8        2.83       0.299
  YS02001890           JUNCTION      0.00   453.45     0  03:01           0        2.79       0.329
  YS02001898           JUNCTION      0.00   453.63     0  03:01           0        2.77       0.120
  YS02001901           JUNCTION      0.00   453.77     0  03:01           0        2.77       0.247
  YS02001904           JUNCTION      0.00   453.83     0  03:01           0        2.77       0.228
  YS02001907           JUNCTION      0.00  1028.13     0  03:00           0        6.12       0.396
  YS02001910           JUNCTION      0.00   577.24     0  03:00           0        3.37       0.350
  YS02001915           JUNCTION    263.65   577.30     0  03:00        1.96        3.39       0.178
  YS02001918           JUNCTION      0.00   314.49     0  03:00           0        1.44       0.126
  YS02001619           JUNCTION    257.27   257.27     0  03:01        1.95        1.95       0.629
  YS02001629           JUNCTION      0.00   207.18     0  02:50           0        1.63       1.787
  YS02001641           JUNCTION      0.00   438.01     0  02:50           0        3.84       0.550
  YS02001644           JUNCTION    282.70  1001.67     0  03:23        2.25        8.29       0.316
  YS02001652           JUNCTION      0.00   374.98     0  03:01           0        2.04       1.146
  YS02001655           JUNCTION      0.15   374.86     0  03:01     0.00434        2.06       1.237
  YS02001920           JUNCTION      2.87   314.44     0  03:00      0.0809        1.44       0.203
  YS02001923           JUNCTION      0.04   314.80     0  03:00     0.00106        1.35       0.034
  YS02001926           JUNCTION      0.05   242.55     0  03:01     0.00147        1.34       0.255
  YS02001929           JUNCTION    129.40   163.26     0  02:59        1.34        1.34       0.040
  YS02001658           JUNCTION      0.00   562.01     0  02:40           0        2.08       1.103
  YS02001661           JUNCTION      0.00   689.04     0  02:54           0         2.8      -0.072
  YS02001664           JUNCTION    327.80   355.89     0  02:53        2.09         2.8       0.245
  YS02001622           JUNCTION      0.00   257.32     0  03:01           0        1.94       1.664
  YS02001633           JUNCTION    287.40   438.28     0  02:50        2.32         3.9       0.825
  YS02001649           JUNCTION      0.00   937.47     0  02:49           0        4.97       0.753
  YS02001757           JUNCTION      0.00  1773.79     0  02:51           0         9.1       1.024
  YS02001895           JUNCTION      0.00   453.64     0  03:01           0        2.78       0.176
  YS02001625           JUNCTION      0.00   257.41     0  03:01           0         1.9       2.057
  YS02163301           JUNCTION      0.00   206.96     0  02:50           0        1.61       1.497
  YS02163601           JUNCTION      0.11   438.09     0  02:50      0.0031        3.87       0.783
  YS02164001           JUNCTION      0.00   437.79     0  02:50           0        3.85       0.524
  YS02001647           JUNCTION      0.00   667.15     0  02:50           0        4.02       0.706
  YSB1154              JUNCTION     25.19    25.19     0  03:01       0.113       0.114       1.286
  YSB6556              JUNCTION      0.00    24.91     0  03:01           0       0.115       1.100
  YSB1174              JUNCTION     19.06    19.06     0  03:01      0.0821      0.0827       1.581
  YSB1171              JUNCTION      0.00    43.19     0  03:01           0       0.203       3.219
  YS02006553           JUNCTION      0.00   695.85     0  02:56           0        5.96       0.265
  YS02006561           JUNCTION      0.00  1060.27     0  02:56           0        8.48       0.006
  YS02006556           JUNCTION      0.00   695.76     0  02:56           0        5.96       0.188
  YS02006558           JUNCTION    392.87  1060.57     0  02:56        2.57        8.51       0.065
  YS02001783           JUNCTION      0.00  1055.27     0  02:56           0        8.48       0.029
  YS02001784           JUNCTION      1.06  1056.39     0  02:56      0.0299        8.51       0.045
  YS02001786           JUNCTION      0.06  1056.32     0  02:56     0.00159         8.5       0.042
  YS02001788           JUNCTION      0.07  1044.65     0  02:56       0.002         8.5       0.022
  YS02001790           JUNCTION      0.15  1036.60     0  02:56     0.00437         8.5       0.032
  YS02001791           JUNCTION      0.00  1091.16     0  02:55           0         8.5       0.010
  YS02001793           JUNCTION      0.00  1009.64     0  02:53           0         8.5       0.001
  WS02004139           JUNCTION      0.32   380.32     0  07:42     0.00905        7.44       0.588
  WSC                  OUTFALL       0.00   975.47     0  03:08           0        16.1       0.000
  3                    OUTFALL       0.00   597.65     0  00:00           0        6.17       0.000
  4                    OUTFALL       0.00    86.19     0  04:01           0       0.227       0.000
  5                    OUTFALL       0.00     0.00     0  00:00           0           0       0.000 ltr
  JK-storage           STORAGE       0.00   980.25     0  02:57           0        8.65     -11.433
  CC-storage           STORAGE       0.00  1773.90     0  02:51           0        7.81       0.828
  XR-storage           STORAGE     690.11   690.11     0  03:01        9.61        10.2      -0.001
  
  
  **********************
  Node Surcharge Summary
  **********************
  
  Surcharging occurs when water rises above the top of the highest conduit.
  ---------------------------------------------------------------------
                                               Max. Height   Min. Depth
                                   Hours       Above Crown    Below Rim
  Node                 Type      Surcharged         Meters       Meters
  ---------------------------------------------------------------------
  WS02004404           JUNCTION        0.76          0.061        2.719
  WS02004406           JUNCTION        0.45          0.033        2.417
  WS02004405           JUNCTION        0.61          0.048        2.752
  WS02006109           JUNCTION        2.16          0.296        1.524
  WS02006110           JUNCTION        1.14          0.124        1.726
  WS02006112           JUNCTION        1.26          0.196        1.484
  WS02006230           JUNCTION        0.68          0.095        1.475
  WS02006231           JUNCTION        0.93          0.121        1.409
  WS02006232           JUNCTION        2.18          0.253        1.227
  WS02006234           JUNCTION        1.11          0.142        1.098
  WS02006235           JUNCTION        1.52          0.177        1.113
  WS02006238           JUNCTION        1.74          0.191        1.239
  WS02006240           JUNCTION        0.96          0.082        1.308
  WS02006242           JUNCTION        1.31          0.109        0.711
  WS02006243           JUNCTION        0.02          0.001        0.769
  WS02006239           JUNCTION        1.15          0.118        1.172
  WS02006252           JUNCTION        0.83          0.192        0.908
  WS02006256           JUNCTION        0.01          1.050        0.000
  WS02006228           JUNCTION        2.07          0.351        1.849
  YS02001748           JUNCTION        5.06          1.190        0.000
  YS02001751           JUNCTION        5.22          1.168        0.032
  YS02001754           JUNCTION        5.40          1.123        0.027
  YS02001762           JUNCTION        5.64          1.088        0.062
  YS02001765           JUNCTION        5.61          1.019        0.081
  YS02001767           JUNCTION        5.58          0.983        0.047
  YS02001770           JUNCTION        5.56          0.920        0.000
  YS02001774           JUNCTION        5.63          1.014        0.036
  YS02001779           JUNCTION        5.39          0.680        0.000
  YS02001882           JUNCTION        0.71          0.703        0.127
  YS02001884           JUNCTION        0.76          0.727        0.143
  YS02001759           JUNCTION        5.66          1.121        0.089
  YS02001887           JUNCTION        0.86          0.784        0.166
  YS02001890           JUNCTION        0.90          0.760        0.000
  YS02001898           JUNCTION        0.66          0.547        0.193
  YS02001901           JUNCTION        0.82          0.685        0.185
  YS02001904           JUNCTION        0.79          0.643        0.207
  YS02001907           JUNCTION        1.48          0.950        0.000
  YS02001910           JUNCTION        0.95          0.811        0.289
  YS02001915           JUNCTION        0.69          0.654        0.346
  YS02001918           JUNCTION        0.42          0.392        0.418
  YS02001619           JUNCTION        5.23          0.610        0.000
  YS02001629           JUNCTION        5.23          0.470        0.000
  YS02001641           JUNCTION        5.62          0.986        0.114
  YS02001644           JUNCTION        5.62          0.920        0.000
  YS02001652           JUNCTION        5.41          1.130        0.000
  YS02001655           JUNCTION        5.26          1.200        0.000
  YS02001920           JUNCTION        0.45          0.495        0.645
  YS02001923           JUNCTION        0.01          0.069        0.751
  YS02001926           JUNCTION        0.01          0.136        0.764
  YS02001658           JUNCTION        5.08          1.300        0.000
  YS02001661           JUNCTION        0.23          1.390        0.000
  YS02001622           JUNCTION        5.26          0.620        0.000
  YS02001633           JUNCTION        5.60          0.977        0.083
  YS02001649           JUNCTION        5.64          1.050        0.000
  YS02001757           JUNCTION        5.74          1.210        0.000
  YS02001895           JUNCTION        0.67          0.570        0.180
  YS02001625           JUNCTION        5.44          0.780        0.000
  YS02163301           JUNCTION        5.58          0.915        0.115
  YS02163601           JUNCTION        5.64          1.071        0.009
  YS02164001           JUNCTION        5.61          1.006        0.094
  YS02001647           JUNCTION        5.42          0.810        0.090
  YS02006553           JUNCTION        1.54          1.085        0.105
  YS02006561           JUNCTION        0.52          0.965        0.185
  YS02006556           JUNCTION        1.19          1.145        0.205
  YS02006558           JUNCTION        1.15          1.155        0.245
  YS02001783           JUNCTION        1.12          1.080        0.520
  YS02001784           JUNCTION        1.11          1.067        0.423
  YS02001786           JUNCTION        0.97          1.388        0.042
  YS02001788           JUNCTION        0.95          1.284        0.196
  YS02001790           JUNCTION        2.38          1.157        0.000
  YS02001791           JUNCTION        2.45          0.981        0.939
  YS02001793           JUNCTION        2.53          0.841        1.759
  
  
  *********************
  Node Flooding Summary
  *********************
  
  Flooding refers to all water that overflows a node, whether it ponds or not.
  --------------------------------------------------------------------------
                                                             Total   Maximum
                                 Maximum   Time of Max       Flood    Ponded
                        Hours       Rate    Occurrence      Volume     Depth
  Node                 Flooded       LPS   days hr:min    10^6 ltr    Meters
  --------------------------------------------------------------------------
  WS02006256              0.01    406.11      0  00:00       0.001     0.000
  YS02001748              0.01    235.33      0  02:43       0.000     0.000
  YS02001770              0.01      6.20      0  02:43       0.000     0.000
  YS02001779              2.67    291.61      0  03:28       0.810     0.000
  YS02001890              0.01     14.74      0  02:57       0.000     0.000
  YS02001907              0.28    454.83      0  03:00       0.148     0.000
  YS02001619              0.01     34.32      0  02:34       0.000     0.000
  YS02001629              0.01     32.41      0  02:40       0.000     0.000
  YS02001644              4.51   1001.64      0  03:23       6.465     0.000
  YS02001652              0.01     23.71      0  02:58       0.000     0.000
  YS02001655              0.01     18.87      0  03:15       0.000     0.000
  YS02001658              0.01    160.29      0  02:40       0.000     0.000
  YS02001661              0.01    192.27      0  02:58       0.002     0.000
  YS02001622              0.01     13.83      0  02:40       0.000     0.000
  YS02001649              0.10     52.63      0  02:58       0.006     0.000
  YS02001757              0.01     21.06      0  02:43       0.000     0.000
  YS02001625              0.86    168.90      0  03:01       0.235     0.000
  YS02001790              0.01     68.40      0  02:56       0.000     0.000
  JK-storage              1.98    365.47      0  03:01       1.292     0.000
  XR-storage              4.19    405.11      0  03:01       1.951     0.000
  
  
  **********************
  Storage Volume Summary
  **********************
  
  --------------------------------------------------------------------------------------------------
                         Average     Avg  Evap Exfil       Maximum     Max    Time of Max    Maximum
                          Volume    Pcnt  Pcnt  Pcnt        Volume    Pcnt     Occurrence    Outflow
  Storage Unit           1000 m3    Full  Loss  Loss       1000 m3    Full    days hr:min        LPS
  --------------------------------------------------------------------------------------------------
  JK-storage               0.137      47     0     0         0.291     100       0  02:57     600.00
  CC-storage               2.971      19     0     0         3.831      24       0  03:26     399.99
  XR-storage               0.828      89     0     0         0.926     100       0  02:54     380.00
  
  
  ***********************
  Outfall Loading Summary
  ***********************
  
  -----------------------------------------------------------
                         Flow       Avg       Max       Total
                         Freq      Flow      Flow      Volume
  Outfall Node           Pcnt       LPS       LPS    10^6 ltr
  -----------------------------------------------------------
  WSC                   99.99    661.39    975.47      16.067
  3                     92.57    316.51    597.65       6.171
  4                     33.15     34.67     86.19       0.227
  5                      0.00      0.00      0.00       0.000
  -----------------------------------------------------------
  System                56.43   1012.58   1571.88      22.464
  
  
  ********************
  Link Flow Summary
  ********************
  
  -----------------------------------------------------------------------------
                                 Maximum  Time of Max   Maximum    Max/    Max/
                                  |Flow|   Occurrence   |Veloc|    Full    Full
  Link                 Type          LPS  days hr:min     m/sec    Flow   Depth
  -----------------------------------------------------------------------------
  WS02003066WSF200     CONDUIT    666.39     0  03:06      2.81    0.11    0.26
  WS02006287WS02006284 CONDUIT    375.44     0  03:02      1.98    0.17    0.29
  WS02006284WS02006280 CONDUIT    375.54     0  03:02      2.22    0.16    0.27
  WS02006280WS02006229 CONDUIT    375.57     0  03:02      3.58    0.08    0.19
  WS02006229WS02006228 CONDUIT    658.75     0  03:01      1.31    2.18    1.00
  WS02006256WS02006235 CONDUIT    177.52     0  00:01      2.73    1.88    1.00
  WS02006253WS02006251 CONDUIT     80.78     0  03:01      0.46    0.24    0.88
  WS02006252WS02006251 CONDUIT    400.17     0  04:00      3.18    1.47    1.00
  WS02006251WS02006249 CONDUIT    396.12     0  04:00      1.15    1.14    0.86
  WS02006249WS02006248 CONDUIT    350.18     0  06:40      1.16    1.92    0.82
  WS02006248WS02006247 CONDUIT    344.90     0  06:40      1.12    0.75    0.88
  WS02006247WS02006245 CONDUIT    338.58     0  06:40      1.08    2.68    0.94
  WS02006245WS02006243 CONDUIT    331.57     0  06:41      1.09    0.98    0.97
  WS02006243WS02006242 CONDUIT    323.55     0  06:41      0.95    0.69    1.00
  WS02006242WS02006240 CONDUIT    312.37     0  06:41      0.87    1.24    1.00
  WS02006240WS02006239 CONDUIT    304.19     0  07:02      0.86    0.96    1.00
  WS02006239WS02006238 CONDUIT    299.23     0  07:02      0.78    0.96    1.00
  WS02006238WS02006235 CONDUIT    298.45     0  07:03      1.32    0.67    1.00
  WS02006235WS02006234 CONDUIT    393.59     0  05:31      1.04    4.15    1.00
  WS02006234WS02006232 CONDUIT    391.79     0  05:31      1.17    0.79    1.00
  WS02006232WS02006231 CONDUIT    391.66     0  05:31      1.07    0.82    1.00
  WS02006231WS02006230 CONDUIT    390.14     0  05:32      1.36    5.92    1.00
  WS02006230WS02006229 CONDUIT    399.99     0  05:33      1.04    8.90    1.00
  WS02006228WS02006109 CONDUIT    658.70     0  03:01      1.31    2.88    1.00
  WS02006116WS02004401 CONDUIT    670.29     0  03:02      0.86    0.92    0.97
  WS02006115WS02006116 CONDUIT    671.80     0  03:01      0.90    0.86    0.90
  WS02006113WS02006111 CONDUIT    694.01     0  03:03      2.59    0.83    0.54
  WS02006112WS02006115 CONDUIT    673.87     0  03:01      0.88    0.40    0.94
  WS02006111WS02006112 CONDUIT    660.05     0  03:01      1.72    0.31    0.72
  WS02006110WS02006113 CONDUIT    661.94     0  03:02      1.51    0.60    0.82
  WS02006109WS02006110 CONDUIT    659.91     0  03:01      1.31    1.27    1.00
  WS02004411WS02004412 CONDUIT    666.45     0  03:05      1.03    0.95    0.77
  WS02004401WS02004402 CONDUIT    667.94     0  03:03      0.85    0.80    0.99
  WS02004413WS02003067 CONDUIT    666.17     0  03:05      1.25    0.29    0.64
  WS02004412WS02004413 CONDUIT    666.27     0  03:05      0.95    0.45    0.84
  WS02004410WS02004411 CONDUIT    666.48     0  03:05      1.03    0.91    0.76
  WS02004409WS02004410 CONDUIT    666.91     0  03:04      1.04    0.86    0.76
  WS02004407WS02004409 CONDUIT    667.19     0  03:04      1.53    0.24    0.54
  WS02004406WS02004407 CONDUIT    667.40     0  03:04      1.20    0.30    0.67
  WS02004405WS02004406 CONDUIT    667.34     0  03:04      0.85    1.32    1.00
  WS02004404WS02004405 CONDUIT    667.26     0  03:04      0.85    6.54    1.00
  WS02004403WS02004404 CONDUIT    667.06     0  03:04      0.85    0.48    1.00
  WS02004402WS02004403 CONDUIT    667.07     0  03:03      0.85    0.96    1.00
  WS02004139WS02001211 CONDUIT    379.97     0  07:50      0.80    0.48    0.57
  WS02004138WS02004139 CONDUIT    380.00     0  07:42      3.34    0.08    0.43
  WS02003067WS02003066 CONDUIT    666.33     0  03:06      1.36    0.21    0.45
  WS02001213WS02003059 CONDUIT    385.48     0  07:49      0.80    0.64    0.76
  WS02001212WS02001213 CONDUIT    386.39     0  07:49      1.26    0.60    0.44
  WS02001211WS02001212 CONDUIT    386.88     0  07:49      0.77    0.30    0.61
  WS02003072WS02003073 CONDUIT    973.75     0  03:08      1.75    2.10    0.49
  WS02003069WS02003072 CONDUIT    973.83     0  03:07      1.64    0.47    0.52
  WS02003060WS02003069 CONDUIT    973.70     0  03:07      1.88    0.38    0.47
  WS02003059WS02003060 CONDUIT    384.15     0  07:48      0.84    0.25    0.66
  HS02004901HS02004770 CONDUIT     17.71     0  03:01      0.07    0.07    0.39
  HS02004876HS02004881 CONDUIT     71.90     0  03:01      0.92    0.76    0.11
  HS02004870HS02004876 CONDUIT     58.03     0  03:01      0.63    0.04    0.13
  HS02004842HS02004848 CONDUIT     11.42     0  03:01      0.05    0.01    0.30
  HS02004837HS02004842 CONDUIT     11.94     0  03:02      0.41    0.01    0.32
  HS02004830HS02004837 CONDUIT     41.69     0  03:01      0.56    0.04    0.11
  HS02004824HS02004830 CONDUIT     41.67     0  03:01      0.58    0.05    0.10
  HS02004817HS02004824 CONDUIT     81.58     0  03:01      0.25    0.04    0.47
  HS02004770HS02004777 CONDUIT     90.21     0  03:01      0.32    0.16    0.41
  HS02004799HS02004480 CONDUIT    226.97     0  03:01      0.78    0.29    0.42
  HS02004792HS02004799 CONDUIT    206.60     0  03:01      0.88    0.13    0.33
  HS02004788HS02004792 CONDUIT    118.94     0  03:01      1.01    0.08    0.17
  HS02004785HS02004788 CONDUIT     89.52     0  03:02      0.66    0.67    0.19
  HS02004777HS02004785 CONDUIT     89.64     0  03:01      0.38    0.11    0.33
  HS02004480HS02004478 CONDUIT    269.12     0  03:01      1.20    1.13    0.32
  HS02004479HS02004480 CONDUIT     44.17     0  03:02      0.23    0.04    0.40
  HS02004862HS02004870 CONDUIT     44.23     0  03:01      0.64    0.05    0.10
  HS02004848HS02004852 CONDUIT     20.44     0  03:01      0.44    0.02    0.07
  HS02004856HS02004862 CONDUIT     30.56     0  03:01      0.47    0.03    0.09
  HS02004852HS02004856 CONDUIT     20.26     0  03:01      0.24    0.02    0.12
  HS02004802HS02004478 CONDUIT    106.59     0  03:02      0.45    0.09    0.35
  HS02004478WS02006287 CONDUIT    375.27     0  03:01      1.68    0.11    0.25
  HS02004817HS02004807 CONDUIT     82.18     0  03:01      0.19    0.05    0.62
  HS02004807HS02004802 CONDUIT    106.49     0  03:01      0.38    0.20    0.40
  YS02001759YS02001757 CONDUIT    661.31     0  02:55      0.84    0.47    1.00
  YS02001762YS02001759 CONDUIT    334.86     0  02:54      0.43    0.39    1.00
  YS02001765YS02001762 CONDUIT    334.76     0  02:54      0.43    0.31    1.00
  YS02001770YS02001767 CONDUIT    334.29     0  02:54      0.43    1.32    1.00
  YS02001774YS02001770 CONDUIT    291.55     0  03:28      0.37    0.19    1.00
  YS02001779YS02001774 CONDUIT    291.71     0  03:28      0.37    0.15    1.00
  YS02001649YS02001757 CONDUIT    937.46     0  02:49      1.19    0.57    1.00
  YS02001767YS02001765 CONDUIT    334.84     0  02:54      0.43    0.42    1.00
  YS02006561YS02001783 CONDUIT   1055.27     0  02:56      2.27    0.55    1.00
  YS02001783YS02001784 CONDUIT   1055.33     0  02:56      2.10    1.45    1.00
  YS02001784YS02001785 CONDUIT   1056.26     0  02:56      2.11    2.46    1.00
  YS02001788YS02001790 CONDUIT   1036.44     0  02:56      2.58    0.76    1.00
  YS02001790YS02001791 CONDUIT   1091.16     0  02:55      3.22    1.19    1.00
  YS02001791YS02001793 CONDUIT   1009.64     0  02:53      6.27    0.43    1.00
  YS02001910YS02001907 CONDUIT    577.41     0  03:00      0.74    0.33    1.00
  YS02001786YS02001788 CONDUIT   1044.58     0  02:56      2.36    2.01    1.00
  YS02001915YS02001910 CONDUIT    577.24     0  03:00      0.73    0.29    1.00
  YS02001918YS02001915 CONDUIT    315.45     0  03:00      0.44    0.17    1.00
  YS02001923YS02001920 CONDUIT    311.57     0  03:00      0.68    0.14    1.00
  YS02001926YS02001923 CONDUIT    314.76     0  03:00      0.79    0.45    1.00
  YS02001929YS02001926 CONDUIT    242.49     0  03:01      0.85    0.12    0.88
  YS02001920YS02001918 CONDUIT    314.49     0  03:00      0.67    0.30    1.00
  YS02001629YS02163301 CONDUIT    206.96     0  02:50      0.26    0.25    1.00
  YS02001619YS02001622 CONDUIT    257.32     0  03:01      0.61    0.38    1.00
  YS02001622YS02001625 CONDUIT    257.41     0  03:01      0.33    0.14    1.00
  YS02001625YS02001629 CONDUIT    207.18     0  02:50      0.26    0.10    1.00
  YS02163301YS02001633 CONDUIT    207.18     0  02:49      0.26    0.19    1.00
  YS02163601YS02164001 CONDUIT    437.79     0  02:50      0.56    0.39    1.00
  YS02164001YS02001641 CONDUIT    438.01     0  02:50      0.56    0.60    1.00
  YS02001641YS02001644 CONDUIT    438.49     0  02:50      0.56    1.42    1.00
  YS02001647YS02001649 CONDUIT    667.48     0  02:50      0.85    0.35    1.00
  YS02006553YS02006556 CONDUIT    695.76     0  02:56      0.89    0.60    1.00
  YS02006556YS02006558 CONDUIT    695.94     0  02:56      0.89    0.55    1.00
  YSB6556YSB1171       CONDUIT     24.81     0  03:03      0.09    0.03    0.67
  YS02001907YS02006553 CONDUIT    695.85     0  02:56      0.77    0.82    1.00
  YS02006558YS02006561 CONDUIT   1060.27     0  02:56      3.75    2.34    1.00
  YS02001633YS02163601 CONDUIT    437.98     0  02:50      0.56    0.46    1.00
  YS02001644YS02001647 CONDUIT    667.15     0  02:50      0.85    0.39    1.00
  YS02001745YS02001748 CONDUIT    593.83     0  02:41      1.48    0.23    0.94
  YS02001748YS02001751 CONDUIT    310.74     0  03:01      1.05    0.16    1.00
  YS02001751YS02001754 CONDUIT    310.60     0  03:01      0.88    0.15    1.00
  YS02001754YS02001757 CONDUIT    310.65     0  03:01      0.40    0.13    1.00
  YS02001882YS02001884 CONDUIT     16.74     0  02:51      0.09    0.02    1.00
  YS02001884YS02001887 CONDUIT     22.52     0  02:49      0.05    0.03    1.00
  YS02001890YS02001895 CONDUIT    453.64     0  03:01      0.58    0.21    1.00
  YS02001895YS02001898 CONDUIT    453.63     0  03:01      0.59    0.79    1.00
  YS02001898YS02001901 CONDUIT    453.77     0  03:01      0.58    0.29    1.00
  YS02001901YS02001904 CONDUIT    453.83     0  03:01      0.58    0.70    1.00
  YS02001904YS02001907 CONDUIT    453.93     0  03:01      0.58    0.16    1.00
  YS02001887YS02001890 CONDUIT    453.45     0  03:01      0.58    0.78    1.00
  YS02001652YS02001649 CONDUIT    375.25     0  03:01      0.50    0.19    1.00
  YS02001655YS02001652 CONDUIT    374.98     0  03:01      0.93    0.18    1.00
  YS02001658YS02001655 CONDUIT    374.70     0  03:01      1.21    0.16    1.00
  YS02001661YS02001658 CONDUIT    562.01     0  02:40      1.56    0.22    1.00
  YS02001664YS02001661 CONDUIT    689.04     0  02:54      1.57    0.22    0.71
  YSB1154YSB6556       CONDUIT     24.91     0  03:01      0.19    0.04    0.56
  YSB1174YSB1171       CONDUIT     18.78     0  03:01      0.07    0.03    0.68
  YSB1171HS02004479    CONDUIT     42.82     0  03:02      0.54    0.03    0.53
  HS02004881HS02006253 CONDUIT     79.15     0  03:01      1.62    0.02    0.22
  YS02001793JiankangQianchi CONDUIT    980.25     0  02:57     16.39    0.08    1.00
  YS02001757CaochengTiaoxuchi CONDUIT   1773.90     0  02:51      2.39    0.78    1.00
  WSF200WS02003060     CONDUIT    666.59     0  03:06      1.77    0.15    0.37
  1                    CONDUIT    975.47     0  03:08      3.30    0.34    0.40
  2                    CONDUIT     86.19     0  04:01      4.65    0.21    0.31
  3                    CONDUIT    597.65     0  00:00     10.05    0.95    0.86
  4                    CONDUIT      0.00     0  00:00      0.00    0.00    0.00
  CC-Pump-1            PUMP       200.00     0  01:59              1.00
  CC-Pump-2            PUMP       200.00     0  07:00              1.00
  JK-Pump-1            PUMP       300.00     0  00:00              1.00
  JK-Pump-2            PUMP       300.00     0  00:00              1.00
  XR-Pump-1            PUMP        95.00     0  04:00              1.00
  XR-Pump-2            PUMP        95.00     0  00:00              1.00
  XR-Pump-3            PUMP        95.00     0  00:00              1.00
  XR-Pump-4            PUMP        95.00     0  00:00              1.00
  
  
  ***************************
  Flow Classification Summary
  ***************************
  
  -------------------------------------------------------------------------------------
                      Adjusted    ---------- Fraction of Time in Flow Class ---------- 
                       /Actual         Up    Down  Sub   Sup   Up    Down  Norm  Inlet 
  Conduit               Length    Dry  Dry   Dry   Crit  Crit  Crit  Crit  Ltd   Ctrl  
  -------------------------------------------------------------------------------------
  WS02003066WSF200        1.00   0.06  0.00  0.00  0.00  0.94  0.00  0.00  0.57  0.00
  WS02006287WS02006284    1.00   0.03  0.01  0.00  0.55  0.41  0.00  0.00  0.65  0.00
  WS02006284WS02006280    1.00   0.03  0.00  0.00  0.00  0.00  0.00  0.97  0.00  0.00
  WS02006280WS02006229    1.00   0.03  0.00  0.00  0.00  0.00  0.00  0.97  0.00  0.00
  WS02006229WS02006228    1.00   0.00  0.00  0.00  0.99  0.00  0.00  0.01  0.00  0.00
  WS02006256WS02006235    1.00   0.00  0.00  0.00  1.00  0.00  0.00  0.00  0.00  0.00
  WS02006253WS02006251    1.00   0.02  0.01  0.00  0.97  0.00  0.00  0.00  0.00  0.00
  WS02006252WS02006251    1.00   0.06  0.00  0.00  0.00  0.00  0.94  0.00  0.00  0.00
  WS02006251WS02006249    1.00   0.00  0.00  0.00  1.00  0.00  0.00  0.00  0.27  0.00
  WS02006249WS02006248    1.00   0.00  0.01  0.00  0.88  0.00  0.10  0.00  0.00  0.00
  WS02006248WS02006247    1.00   0.02  0.00  0.00  0.98  0.00  0.00  0.01  0.16  0.00
  WS02006247WS02006245    1.00   0.02  0.00  0.00  0.97  0.00  0.00  0.02  0.00  0.00
  WS02006245WS02006243    1.00   0.01  0.00  0.00  0.95  0.00  0.00  0.03  0.02  0.00
  WS02006243WS02006242    1.00   0.01  0.00  0.00  0.99  0.00  0.00  0.00  0.21  0.00
  WS02006242WS02006240    1.00   0.00  0.00  0.00  1.00  0.00  0.00  0.00  0.00  0.00
  WS02006240WS02006239    1.00   0.00  0.00  0.00  0.97  0.00  0.00  0.03  0.02  0.00
  WS02006239WS02006238    1.00   0.00  0.00  0.00  1.00  0.00  0.00  0.00  0.00  0.00
  WS02006238WS02006235    1.00   0.00  0.00  0.00  1.00  0.00  0.00  0.00  0.00  0.00
  WS02006235WS02006234    1.00   0.00  0.00  0.00  0.96  0.00  0.04  0.00  0.00  0.00
  WS02006234WS02006232    1.00   0.00  0.00  0.00  1.00  0.00  0.00  0.00  0.00  0.00
  WS02006232WS02006231    1.00   0.00  0.00  0.00  0.99  0.00  0.01  0.00  0.00  0.00
  WS02006231WS02006230    1.00   0.00  0.00  0.00  0.66  0.00  0.34  0.00  0.00  0.00
  WS02006230WS02006229    1.00   0.00  0.00  0.00  0.99  0.00  0.00  0.01  0.01  0.00
  WS02006228WS02006109    1.00   0.00  0.00  0.00  1.00  0.00  0.00  0.00  0.00  0.00
  WS02006116WS02004401    1.00   0.02  0.00  0.00  0.98  0.00  0.00  0.00  0.00  0.00
  WS02006115WS02006116    1.00   0.02  0.00  0.00  0.97  0.00  0.00  0.01  0.01  0.00
  WS02006113WS02006111    1.00   0.02  0.00  0.00  0.00  0.98  0.00  0.00  0.10  0.00
  WS02006112WS02006115    1.00   0.02  0.00  0.00  0.98  0.00  0.00  0.00  0.00  0.00
  WS02006111WS02006112    1.00   0.02  0.00  0.00  0.98  0.00  0.00  0.00  0.91  0.00
  WS02006110WS02006113    1.00   0.01  0.00  0.00  0.98  0.00  0.00  0.00  0.00  0.00
  WS02006109WS02006110    1.00   0.00  0.01  0.00  0.98  0.00  0.00  0.00  0.00  0.00
  WS02004411WS02004412    1.00   0.04  0.00  0.00  0.96  0.00  0.00  0.00  0.00  0.00
  WS02004401WS02004402    1.00   0.02  0.00  0.00  0.98  0.00  0.00  0.00  0.00  0.00
  WS02004413WS02003067    1.00   0.04  0.01  0.00  0.00  0.00  0.95  0.00  0.00  0.00
  WS02004412WS02004413    1.00   0.04  0.00  0.00  0.96  0.00  0.00  0.00  0.01  0.00
  WS02004410WS02004411    1.00   0.04  0.00  0.00  0.96  0.00  0.00  0.00  0.00  0.00
  WS02004409WS02004410    1.00   0.04  0.00  0.00  0.96  0.00  0.00  0.00  0.00  0.00
  WS02004407WS02004409    1.00   0.04  0.00  0.00  0.95  0.00  0.00  0.00  0.80  0.00
  WS02004406WS02004407    1.00   0.00  0.04  0.00  0.96  0.00  0.00  0.00  0.00  0.00
  WS02004405WS02004406    1.00   0.00  0.00  0.00  1.00  0.00  0.00  0.00  0.02  0.00
  WS02004404WS02004405    1.00   0.00  0.00  0.00  1.00  0.00  0.00  0.00  0.00  0.00
  WS02004403WS02004404    1.00   0.00  0.02  0.00  0.98  0.00  0.00  0.00  0.02  0.00
  WS02004402WS02004403    1.00   0.02  0.00  0.00  0.98  0.00  0.00  0.00  0.00  0.00
  WS02004139WS02001211    1.00   0.00  0.00  0.00  0.99  0.00  0.00  0.00  0.00  0.00
  WS02004138WS02004139    1.00   0.00  0.00  0.00  0.99  0.01  0.00  0.00  1.00  0.00
  WS02003067WS02003066    1.00   0.05  0.00  0.00  0.94  0.00  0.00  0.00  0.00  0.00
  WS02001213WS02003059    1.00   0.00  0.00  0.00  0.99  0.00  0.00  0.00  0.00  0.00
  WS02001212WS02001213    1.00   0.00  0.00  0.00  0.85  0.00  0.14  0.00  0.00  0.00
  WS02001211WS02001212    1.00   0.00  0.00  0.00  1.00  0.00  0.00  0.00  0.00  0.00
  WS02003072WS02003073    1.00   0.00  0.00  0.00  0.00  0.00  0.00  1.00  0.00  0.00
  WS02003069WS02003072    1.00   0.00  0.00  0.00  0.99  0.01  0.00  0.00  0.22  0.00
  WS02003060WS02003069    1.00   0.00  0.00  0.00  0.99  0.01  0.00  0.00  0.09  0.00
  WS02003059WS02003060    1.00   0.00  0.00  0.00  0.99  0.01  0.00  0.00  0.01  0.00
  HS02004901HS02004770    1.00   0.03  0.00  0.00  0.97  0.00  0.00  0.00  0.00  0.00
  HS02004876HS02004881    1.00   0.02  0.00  0.00  0.89  0.09  0.00  0.00  0.00  0.00
  HS02004870HS02004876    1.00   0.01  0.00  0.00  0.99  0.00  0.00  0.00  0.95  0.00
  HS02004842HS02004848    1.00   0.00  0.03  0.00  0.97  0.00  0.00  0.00  0.58  0.00
  HS02004837HS02004842    1.00   0.00  0.00  0.00  0.99  0.01  0.00  0.00  0.11  0.00
  HS02004830HS02004837    1.00   0.00  0.00  0.00  1.00  0.00  0.00  0.00  0.99  0.00
  HS02004824HS02004830    1.00   0.00  0.00  0.00  1.00  0.00  0.00  0.00  0.00  0.00
  HS02004817HS02004824    1.00   0.00  0.00  0.00  1.00  0.00  0.00  0.00  1.00  0.00
  HS02004770HS02004777    1.00   0.00  0.03  0.00  0.97  0.00  0.00  0.00  0.03  0.00
  HS02004799HS02004480    1.00   0.00  0.02  0.00  0.96  0.00  0.02  0.00  0.00  0.00
  HS02004792HS02004799    1.00   0.00  0.00  0.00  0.99  0.01  0.00  0.00  0.98  0.00
  HS02004788HS02004792    1.00   0.00  0.00  0.00  0.99  0.01  0.00  0.00  0.98  0.00
  HS02004785HS02004788    1.00   0.00  0.00  0.00  1.00  0.00  0.00  0.00  0.00  0.00
  HS02004777HS02004785    1.00   0.00  0.00  0.00  1.00  0.00  0.00  0.00  0.14  0.00
  HS02004480HS02004478    1.00   0.03  0.00  0.00  0.63  0.00  0.00  0.33  0.00  0.00
  HS02004479HS02004480    1.00   0.02  0.00  0.00  0.98  0.00  0.00  0.00  0.13  0.00
  HS02004862HS02004870    1.00   0.00  0.00  0.00  1.00  0.00  0.00  0.00  0.05  0.00
  HS02004848HS02004852    1.00   0.03  0.00  0.00  0.97  0.00  0.00  0.00  0.61  0.00
  HS02004856HS02004862    1.00   0.00  0.04  0.00  0.96  0.00  0.00  0.00  0.80  0.00
  HS02004852HS02004856    1.00   0.03  0.00  0.00  0.96  0.00  0.00  0.00  0.85  0.00
  HS02004802HS02004478    1.00   0.03  0.00  0.00  0.96  0.00  0.00  0.00  0.03  0.00
  HS02004478WS02006287    1.00   0.04  0.00  0.00  0.70  0.26  0.00  0.00  0.66  0.00
  HS02004817HS02004807    1.00   0.00  0.03  0.00  0.97  0.00  0.00  0.00  0.01  0.00
  HS02004807HS02004802    1.00   0.03  0.00  0.00  0.96  0.00  0.00  0.00  0.00  0.00
  YS02001759YS02001757    1.00   0.00  0.00  0.00  1.00  0.00  0.00  0.00  0.16  0.00
  YS02001762YS02001759    1.00   0.00  0.00  0.00  1.00  0.00  0.00  0.00  0.03  0.00
  YS02001765YS02001762    1.00   0.00  0.00  0.00  1.00  0.00  0.00  0.00  0.16  0.00
  YS02001770YS02001767    1.00   0.00  0.00  0.00  1.00  0.00  0.00  0.00  0.00  0.00
  YS02001774YS02001770    1.00   0.00  0.03  0.00  0.97  0.00  0.00  0.00  0.04  0.00
  YS02001779YS02001774    1.00   0.00  0.00  0.00  1.00  0.00  0.00  0.00  0.21  0.00
  YS02001649YS02001757    1.00   0.00  0.00  0.00  1.00  0.00  0.00  0.00  0.17  0.00
  YS02001767YS02001765    1.00   0.00  0.00  0.00  1.00  0.00  0.00  0.00  0.00  0.00
  YS02006561YS02001783    1.00   0.05  0.00  0.00  0.46  0.49  0.00  0.00  0.55  0.00
  YS02001783YS02001784    1.00   0.00  0.05  0.00  0.95  0.00  0.00  0.00  0.01  0.00
  YS02001784YS02001785    1.00   0.00  0.00  0.00  1.00  0.00  0.00  0.00  0.20  0.00
  YS02001788YS02001790    1.00   0.00  0.00  0.00  0.46  0.54  0.00  0.00  0.49  0.00
  YS02001790YS02001791    1.00   0.00  0.00  0.00  0.43  0.57  0.00  0.00  0.39  0.00
  YS02001791YS02001793    1.00   0.00  0.00  0.00  0.42  0.58  0.00  0.00  0.01  0.00
  YS02001910YS02001907    1.00   0.00  0.00  0.00  0.98  0.00  0.00  0.02  0.13  0.00
  YS02001786YS02001788    1.00   0.00  0.00  0.00  0.47  0.53  0.00  0.00  0.00  0.00
  YS02001915YS02001910    1.00   0.00  0.00  0.00  0.99  0.01  0.00  0.00  0.18  0.00
  YS02001918YS02001915    1.00   0.00  0.01  0.00  0.99  0.00  0.00  0.00  0.58  0.00
  YS02001923YS02001920    1.00   0.00  0.00  0.00  1.00  0.00  0.00  0.00  0.86  0.00
  YS02001926YS02001923    1.00   0.00  0.02  0.00  0.14  0.00  0.83  0.00  0.00  0.00
  YS02001929YS02001926    1.00   0.00  0.03  0.00  0.97  0.00  0.00  0.00  0.80  0.00
  YS02001920YS02001918    1.00   0.00  0.01  0.00  0.99  0.00  0.00  0.00  0.00  0.00
  YS02001629YS02163301    1.00   0.04  0.00  0.00  0.96  0.00  0.00  0.00  0.00  0.00
  YS02001619YS02001622    1.00   0.03  0.00  0.00  0.97  0.00  0.00  0.00  0.00  0.00
  YS02001622YS02001625    1.00   0.03  0.00  0.00  0.97  0.00  0.00  0.00  0.07  0.00
  YS02001625YS02001629    1.00   0.03  0.01  0.00  0.94  0.00  0.01  0.00  0.00  0.00
  YS02163301YS02001633    1.00   0.00  0.04  0.00  0.96  0.00  0.00  0.00  0.00  0.00
  YS02163601YS02164001    1.00   0.00  0.03  0.00  0.97  0.00  0.00  0.00  0.00  0.00
  YS02164001YS02001641    1.00   0.01  0.02  0.00  0.97  0.00  0.00  0.00  0.06  0.00
  YS02001641YS02001644    1.00   0.00  0.01  0.00  0.99  0.00  0.00  0.00  0.00  0.00
  YS02001647YS02001649    1.00   0.00  0.04  0.00  0.96  0.00  0.00  0.00  0.01  0.00
  YS02006553YS02006556    1.00   0.01  0.00  0.00  0.99  0.00  0.00  0.00  0.03  0.00
  YS02006556YS02006558    1.00   0.00  0.00  0.00  1.00  0.00  0.00  0.00  0.00  0.00
  YSB6556YSB1171          1.00   0.02  0.01  0.00  0.97  0.00  0.00  0.00  0.00  0.00
  YS02001907YS02006553    1.00   0.00  0.01  0.00  0.98  0.00  0.00  0.00  0.00  0.00
  YS02006558YS02006561    1.00   0.05  0.00  0.00  0.15  0.80  0.00  0.00  0.47  0.00
  YS02001633YS02163601    1.00   0.00  0.01  0.00  0.99  0.00  0.00  0.00  0.16  0.00
  YS02001644YS02001647    1.00   0.00  0.04  0.00  0.96  0.00  0.00  0.00  0.00  0.00
  YS02001745YS02001748    1.00   0.00  0.00  0.00  0.89  0.01  0.00  0.09  0.05  0.00
  YS02001748YS02001751    1.00   0.00  0.00  0.00  0.98  0.02  0.00  0.00  0.15  0.00
  YS02001751YS02001754    1.00   0.00  0.00  0.00  0.95  0.00  0.00  0.05  0.02  0.00
  YS02001754YS02001757    1.00   0.00  0.00  0.00  0.99  0.01  0.00  0.00  0.20  0.00
  YS02001882YS02001884    1.00   0.04  0.00  0.00  0.96  0.00  0.00  0.00  0.00  0.00
  YS02001884YS02001887    1.00   0.02  0.01  0.00  0.97  0.00  0.00  0.00  0.00  0.00
  YS02001890YS02001895    1.00   0.00  0.04  0.00  0.96  0.00  0.00  0.00  0.00  0.00
  YS02001895YS02001898    1.00   0.04  0.00  0.00  0.95  0.00  0.01  0.00  0.00  0.00
  YS02001898YS02001901    1.00   0.04  0.00  0.00  0.96  0.00  0.00  0.00  0.02  0.00
  YS02001901YS02001904    1.00   0.04  0.00  0.00  0.96  0.00  0.00  0.00  0.00  0.00
  YS02001904YS02001907    1.00   0.00  0.04  0.00  0.96  0.00  0.00  0.00  0.00  0.00
  YS02001887YS02001890    1.00   0.00  0.00  0.00  0.98  0.00  0.01  0.00  0.00  0.00
  YS02001652YS02001649    1.00   0.00  0.00  0.00  1.00  0.00  0.00  0.00  0.18  0.00
  YS02001655YS02001652    1.00   0.00  0.00  0.00  0.95  0.00  0.00  0.05  0.02  0.00
  YS02001658YS02001655    1.00   0.00  0.04  0.00  0.94  0.02  0.00  0.00  0.11  0.00
  YS02001661YS02001658    1.00   0.04  0.00  0.00  0.89  0.07  0.00  0.00  0.06  0.00
  YS02001664YS02001661    1.00   0.03  0.00  0.00  0.86  0.11  0.00  0.00  0.22  0.00
  YSB1154YSB6556          1.00   0.03  0.00  0.00  0.97  0.00  0.00  0.00  0.02  0.00
  YSB1174YSB1171          1.00   0.02  0.01  0.00  0.97  0.00  0.00  0.00  0.00  0.00
  YSB1171HS02004479       1.00   0.02  0.00  0.00  0.98  0.00  0.00  0.00  0.11  0.00
  HS02004881HS02006253    1.00   0.02  0.00  0.00  0.79  0.01  0.00  0.18  0.62  0.00
  YS02001793JiankangQianchi    1.00   0.00  0.00  0.00  0.56  0.44  0.00  0.00  0.12  0.00
  YS02001757CaochengTiaoxuchi    1.00   0.00  0.06  0.00  0.93  0.01  0.00  0.00  0.00  0.00
  WSF200WS02003060        1.00   0.00  0.06  0.00  0.93  0.01  0.00  0.00  0.17  0.00
  1                       1.00   0.00  0.00  0.00  0.00  1.00  0.00  0.00  0.29  0.00
  2                       1.00   0.67  0.00  0.00  0.00  0.33  0.00  0.00  0.05  0.00
  3                       1.00   0.07  0.00  0.00  0.00  0.93  0.00  0.00  0.02  0.00
  4                       1.00   1.00  0.00  0.00  0.00  0.00  0.00  0.00  0.00  0.00
  
  
  *************************
  Conduit Surcharge Summary
  *************************
  
  ----------------------------------------------------------------------------
                                                           Hours        Hours 
                         --------- Hours Full --------   Above Full   Capacity
  Conduit                Both Ends  Upstream  Dnstream   Normal Flow   Limited
  ----------------------------------------------------------------------------
  WS02006229WS02006228        2.07      2.27      2.07      4.51         2.07
  WS02006256WS02006235        6.05      6.05      7.83      4.17         0.01
  WS02006252WS02006251        0.30      0.30      0.83      0.69         0.01
  WS02006251WS02006249        0.01      0.01      0.01      0.28         0.01
  WS02006249WS02006248        0.01      0.01      0.01      4.52         0.01
  WS02006247WS02006245        0.01      0.01      0.01      4.86         0.01
  WS02006245WS02006243        0.01      0.01      0.02      0.01         0.01
  WS02006243WS02006242        0.17      0.17      1.31      0.01         0.01
  WS02006242WS02006240        0.96      0.96      1.62      0.82         0.01
  WS02006240WS02006239        1.03      1.03      1.15      0.01         0.01
  WS02006239WS02006238        1.59      1.59      1.74      0.01         0.01
  WS02006238WS02006235        1.61      1.61      2.02      0.01         0.01
  WS02006235WS02006234        1.11      1.11      1.52      6.09         0.01
  WS02006234WS02006232        1.24      1.24      2.18      0.01         0.01
  WS02006232WS02006231        0.93      0.93      2.18      0.01         0.01
  WS02006231WS02006230        0.68      0.68      0.97      6.05         0.01
  WS02006230WS02006229        3.04      4.27      3.04      6.12         3.04
  WS02006228WS02006109        2.16      2.74      2.16      5.27         2.16
  WS02006112WS02006115        0.01      0.01      1.26      0.01         0.01
  WS02006111WS02006112        0.01      0.01      4.65      0.01         0.01
  WS02006110WS02006113        0.01      0.01      2.50      0.01         0.01
  WS02006109WS02006110        1.14      1.14      2.74      1.14         0.01
  WS02004406WS02004407        0.01      0.01      0.45      0.01         0.01
  WS02004405WS02004406        0.45      0.61      0.45      1.20         0.45
  WS02004404WS02004405        0.61      0.75      0.61      6.00         0.61
  WS02004403WS02004404        0.01      0.01      0.75      0.01         0.01
  WS02003072WS02003073        0.01      0.01      0.01      5.48         0.01
  HS02004480HS02004478        0.01      0.01      0.01      0.25         0.01
  YS02001759YS02001757        5.66      5.66      5.74      0.01         0.01
  YS02001762YS02001759        5.64      5.64      5.66      0.01         0.01
  YS02001765YS02001762        5.61      5.61      5.64      0.01         0.01
  YS02001770YS02001767        5.58      5.58      5.58      0.31         0.79
  YS02001774YS02001770        5.56      5.56      5.63      0.01         0.01
  YS02001779YS02001774        5.39      5.39      5.63      0.01         0.01
  YS02001649YS02001757        5.64      5.64      5.74      0.01         0.01
  YS02001767YS02001765        5.58      5.58      5.61      0.01         0.01
  YS02006561YS02001783        0.52      0.52      1.12      0.01         0.01
  YS02001783YS02001784        1.09      1.12      1.11      1.17         0.89
  YS02001784YS02001785        0.97      1.11      0.97      2.08         0.97
  YS02001788YS02001790        0.95      0.95      2.38      0.01         0.01
  YS02001790YS02001791        2.38      2.38      2.45      0.49         0.39
  YS02001791YS02001793        2.45      2.45      2.55      0.01         0.01
  YS02001910YS02001907        0.95      0.95      1.48      0.01         0.01
  YS02001786YS02001788        0.95      0.97      0.95      1.67         0.95
  YS02001915YS02001910        0.69      0.69      0.95      0.01         0.01
  YS02001918YS02001915        0.42      0.42      0.69      0.01         0.01
  YS02001923YS02001920        0.18      0.18      0.45      0.01         0.01
  YS02001926YS02001923        0.01      0.01      0.01      0.01         0.01
  YS02001929YS02001926        0.01      0.01      0.01      0.01         0.01
  YS02001920YS02001918        0.42      0.42      0.45      0.01         0.01
  YS02001629YS02163301        5.56      5.56      5.58      0.01         0.01
  YS02001619YS02001622        5.23      5.23      5.26      0.01         0.01
  YS02001622YS02001625        5.26      5.26      5.44      0.01         0.01
  YS02001625YS02001629        5.23      5.23      5.44      0.01         0.01
  YS02163301YS02001633        5.58      5.58      5.61      0.01         0.01
  YS02163601YS02164001        5.61      5.61      5.64      0.01         0.01
  YS02164001YS02001641        5.61      5.61      5.62      0.01         0.02
  YS02001641YS02001644        5.62      5.62      5.62      1.22         1.31
  YS02001647YS02001649        5.42      5.42      5.64      0.01         0.01
  YS02006553YS02006556        1.19      1.19      1.54      0.01         0.01
  YS02006556YS02006558        1.36      1.36      1.61      0.01         0.01
  YS02001907YS02006553        2.09      2.09      2.30      0.01         0.01
  YS02006558YS02006561        0.69      1.15      0.69      1.94         0.69
  YS02001633YS02163601        5.60      5.60      5.64      0.01         0.01
  YS02001644YS02001647        5.42      5.42      5.62      0.01         0.01
  YS02001745YS02001748        0.01      0.01      5.06      0.01         0.01
  YS02001748YS02001751        5.10      5.10      5.22      0.01         0.01
  YS02001751YS02001754        5.22      5.22      5.40      0.01         0.01
  YS02001754YS02001757        5.42      5.42      5.74      0.01         0.01
  YS02001882YS02001884        0.71      0.71      0.76      0.01         0.01
  YS02001884YS02001887        0.83      0.83      0.86      0.01         0.01
  YS02001890YS02001895        0.67      0.67      0.98      0.01         0.01
  YS02001895YS02001898        0.66      0.66      0.67      0.01         0.01
  YS02001898YS02001901        0.68      0.68      0.82      0.01         0.01
  YS02001901YS02001904        0.79      0.79      0.82      0.01         0.01
  YS02001904YS02001907        0.79      0.79      1.56      0.01         0.01
  YS02001887YS02001890        0.90      0.90      0.94      0.01         0.01
  YS02001652YS02001649        5.42      5.42      5.64      0.01         0.01
  YS02001655YS02001652        5.26      5.26      5.41      0.01         0.01
  YS02001658YS02001655        5.08      5.08      5.26      0.01         0.01
  YS02001661YS02001658        0.21      0.21      5.08      0.01         0.01
  YS02001664YS02001661        0.01      0.01      1.16      0.01         0.01
  YS02001793JiankangQianchi        2.53      2.53      3.22      0.01         0.01
  YS02001757CaochengTiaoxuchi        4.90      4.90      5.74      0.01         0.01
  3                           0.01      0.01      0.01      0.01         0.01
  
  
  ***************
  Pumping Summary
  ***************
  
  ---------------------------------------------------------------------------------------------------------
                                                  Min       Avg       Max     Total     Power    % Time Off
                        Percent   Number of      Flow      Flow      Flow    Volume     Usage    Pump Curve
  Pump                 Utilized   Start-Ups       LPS       LPS       LPS  10^6 ltr     Kw-hr    Low   High
  ---------------------------------------------------------------------------------------------------------
  CC-Pump-1               60.92           3      0.00    182.39    200.00     3.101      4.38    0.0   12.9
  CC-Pump-2               27.65           6      0.00    116.83    200.00     0.900      0.79    0.0    0.0
  JK-Pump-1               80.85           3      0.00    205.03    300.00     3.398     43.07    0.0    0.0
  JK-Pump-2              100.00           1      0.00    229.98    300.00     5.078     55.04    0.0    0.0
  XR-Pump-1               44.67           5      0.00     70.19     95.00     0.883      4.90    0.0    0.0
  XR-Pump-2               80.84           7      0.00     76.96     95.00     1.767     17.77    0.0    0.0
  XR-Pump-3              100.00           3      0.00     87.21     95.00     2.337     19.14    0.0    0.0
  XR-Pump-4              100.00           1      0.00     88.13     95.00     2.451     20.21    0.0    0.0
  

  Analysis begun on:  Thu Dec 23 16:32:08 2021
  Analysis ended on:  Thu Dec 23 16:32:13 2021
  Total elapsed time: 00:00:05