
  EPA STORM WATER MANAGEMENT MODEL - VERSION 5.1 (Build 5.3.0.dev0)
  --------------------------------------------------------------

  WARNING 04: minimum elevation drop used for Conduit WS02004404WS02004405
  WARNING 03: negative offset ignored for Link YS02001904YS02001907
  
  *********************************************************
  NOTE: The summary statistics displayed in this report are
  based on results found at every computational time step,  
  not just on results from each reporting time step.
  *********************************************************
  
  ****************
  Analysis Options
  ****************
  Flow Units ............... LPS
  Process Models:
    Rainfall/Runoff ........ YES
    RDII ................... NO
    Snowmelt ............... NO
    Groundwater ............ NO
    Flow Routing ........... YES
    Ponding Allowed ........ NO
    Water Quality .......... NO
  Infiltration Method ...... HORTON
  Flow Routing Method ...... DYNWAVE
  Surcharge Method ......... EXTRAN
  Starting Date ............ 08/28/2015 08:00:00
  Ending Date .............. 08/28/2015 15:50:00
  Antecedent Dry Days ...... 8.0
  Report Time Step ......... 00:01:00
  Wet Time Step ............ 00:01:00
  Dry Time Step ............ 00:01:00
  Routing Time Step ........ 5.00 sec
  Variable Time Step ....... YES
  Maximum Trials ........... 8
  Number of Threads ........ 4
  Head Tolerance ........... 0.001500 m
  
  
  **************************        Volume         Depth
  Runoff Quantity Continuity     hectare-m            mm
  **************************     ---------       -------
  Total Precipitation ......         5.556        12.164
  Evaporation Loss .........         0.000         0.000
  Infiltration Loss ........         1.427         3.124
  Surface Runoff ...........         3.072         6.726
  Final Storage ............         1.058         2.316
  Continuity Error (%) .....        -0.016
  
  
  **************************        Volume        Volume
  Flow Routing Continuity        hectare-m      10^6 ltr
  **************************     ---------     ---------
  Dry Weather Inflow .......         0.616         6.165
  Wet Weather Inflow .......         3.071        30.710
  Groundwater Inflow .......         0.000         0.000
  RDII Inflow ..............         0.000         0.000
  External Inflow ..........         0.102         1.024
  External Outflow .........         1.956        19.563
  Flooding Loss ............         1.363        13.631
  Evaporation Loss .........         0.000         0.000
  Exfiltration Loss ........         0.000         0.000
  Initial Stored Volume ....         0.076         0.761
  Final Stored Volume ......         0.649         6.495
  Continuity Error (%) .....        -2.666
  
  
  *************************
  Highest Continuity Errors
  *************************
  Node HS02004842 (16.24%)
  Node JK-storage (-11.62%)
  Node YS02001884 (10.63%)
  Node YSB1171 (3.12%)
  Node HS02004817 (2.99%)
  
  
  ***************************
  Time-Step Critical Elements
  ***************************
  Link 3 (65.78%)
  Link WS02006252WS02006251 (26.43%)
  Link WS02006280WS02006229 (1.86%)
  Link WS02004404WS02004405 (1.26%)
  
  
  ********************************
  Highest Flow Instability Indexes
  ********************************
  Link WS02006113WS02006111 (43)
  Link YS02163301YS02001633 (39)
  Link YS02163601YS02164001 (38)
  Link YS02001619YS02001622 (38)
  Link YS02001629YS02163301 (38)
  
  
  *************************
  Routing Time Step Summary
  *************************
  Minimum Time Step           :     0.38 sec
  Average Time Step           :     0.84 sec
  Maximum Time Step           :     5.00 sec
  Percent in Steady State     :    -0.00
  Average Iterations per Step :     4.44
  Percent Not Converging      :    19.08
  
  
  ***************************
  Subcatchment Runoff Summary
  ***************************
  
  ------------------------------------------------------------------------------------------------------------------------------
                            Total      Total      Total      Total     Imperv       Perv      Total       Total     Peak  Runoff
                           Precip      Runon       Evap      Infil     Runoff     Runoff     Runoff      Runoff   Runoff   Coeff
  Subcatchment                 mm         mm         mm         mm         mm         mm         mm    10^6 ltr      LPS
  ------------------------------------------------------------------------------------------------------------------------------
  sub0                      12.16       0.00       0.00       0.85      10.05       0.00      10.05        0.01     1.91   0.826
  sub1                      12.16       0.00       0.00       1.34       9.56       0.00       9.56        0.06    14.15   0.786
  sub2                      12.16       0.00       0.00       4.50       6.75       0.00       6.75        0.06    13.75   0.555
  sub3                      12.16       0.00       0.00       4.50       6.71       0.00       6.71        0.15    32.07   0.552
  sub4                      12.16       0.00       0.00       1.34       9.40       0.00       9.40        0.20    40.20   0.773
  sub5                      12.16       0.00       0.00       0.85       9.99       0.00       9.99        0.11    25.19   0.822
  sub7                      12.16       0.00       0.00       1.09       9.81       0.00       9.81        0.03     7.55   0.807
  sub8                      12.16       0.00       0.00       1.09       9.80       0.00       9.80        0.06    14.17   0.806
  sub9                      12.16       0.00       0.00       1.09       9.80       0.00       9.80        0.05    10.64   0.806
  sub10                     12.16       0.00       0.00       0.97       9.89       0.00       9.89        0.11    24.40   0.813
  sub11                     12.16       0.00       0.00       0.97       9.91       0.00       9.91        0.12    26.15   0.815
  sub12                     12.16       0.00       0.00       1.58       9.39       0.00       9.39        0.08    19.06   0.772
  sub14                     12.16       0.00       0.00       1.09       9.80       0.00       9.80        0.09    21.02   0.805
  sub15                     12.16       0.00       0.00       3.65       7.53       0.00       7.53        0.13    29.11   0.619
  sub16                     12.16       0.00       0.00       4.01       7.23       0.00       7.23        0.08    17.47   0.594
  sub17                     12.16       0.00       0.00       3.89       7.34       0.00       7.34        0.06    14.47   0.603
  sub22                     12.16       0.00       0.00       5.23       6.14       0.00       6.14        0.39    88.27   0.505
  sub23                     12.16       0.00       0.00       4.50       6.79       0.00       6.79        0.32    73.89   0.558
  sub60                     12.16       0.00       0.00       1.46       7.71       0.00       7.71        2.34   297.17   0.634
  sub61                     12.16       0.00       0.00       2.07       7.87       0.00       7.87        2.43   359.80   0.647
  sub62                     12.16       0.00       0.00       0.97       8.55       0.00       8.55        2.63   372.87   0.703
  sub63                     12.16       0.00       0.00       3.53       6.89       0.00       6.89        2.09   327.80   0.567
  sub64                     12.16       0.00       0.00       1.82       7.40       0.00       7.40        2.25   282.66   0.608
  sub65                     12.16       0.00       0.00       1.58       7.52       0.00       7.52        2.31   287.20   0.618
  sub66                     12.16       0.00       0.00       3.53       6.36       0.00       6.36        1.95   257.27   0.523
  sub67                     12.16       0.00       0.00       0.97       9.05       0.00       9.05        2.79   452.90   0.744
  sub68                     12.16       0.00       0.00       1.70       8.28       0.00       8.28        2.55   391.99   0.681
  sub69                     12.16       0.00       0.00       1.82       8.61       0.00       8.61        2.01   355.79   0.708
  sub70                     12.16       8.79       0.00       7.03      11.43       0.10      11.53        2.64   335.00   0.550
  sub71                     12.16       0.00       0.00       0.97       8.31       0.00       8.31        1.96   263.63   0.683
  sub72                     12.16       0.00       0.00       0.85       6.56       0.00       6.56        1.34   129.40   0.540
  sub73                     12.16      11.23       0.00       7.88      12.47       0.08      12.54        2.95   300.52   0.536
  sub74                     12.16       0.00       0.00       9.12       2.57       0.00       2.57        1.03   189.59   0.211
  
  
  ******************
  Node Depth Summary
  ******************
  
  ---------------------------------------------------------------------------------
                                 Average  Maximum  Maximum  Time of Max    Reported
                                   Depth    Depth      HGL   Occurrence   Max Depth
  Node                 Type       Meters   Meters   Meters  days hr:min      Meters
  ---------------------------------------------------------------------------------
  WS02001211           JUNCTION     0.67     0.79     5.62     0  02:21        0.79
  WS02001212           JUNCTION     0.39     0.50     5.57     0  02:22        0.50
  WS02001213           JUNCTION     0.62     0.76     5.52     0  02:22        0.76
  WS02003069           JUNCTION     0.44     0.59     5.18     0  02:24        0.59
  WS02003072           JUNCTION     0.50     0.65     5.02     0  02:24        0.65
  WS02003073           JUNCTION     0.30     0.40     4.47     0  02:25        0.40
  WS02003060           JUNCTION     0.39     0.52     5.46     0  02:23        0.52
  WS02003066           JUNCTION     0.23     0.33     5.88     0  03:07        0.33
  WS02003059           JUNCTION     0.68     0.81     5.50     0  02:22        0.81
  WS02003067           JUNCTION     0.56     0.74     6.06     0  03:07        0.74
  WS02004401           JUNCTION     0.67     0.97     6.97     0  03:05        0.97
  WS02004402           JUNCTION     0.70     0.99     6.95     0  03:05        0.98
  WS02004403           JUNCTION     0.72     0.99     6.92     0  03:05        0.99
  WS02004404           JUNCTION     0.80     1.05     6.90     0  03:05        1.05
  WS02004406           JUNCTION     0.80     1.03     6.86     0  03:05        1.03
  WS02004409           JUNCTION     0.48     0.75     6.52     0  03:06        0.75
  WS02004410           JUNCTION     0.50     0.76     6.48     0  03:06        0.76
  WS02004411           JUNCTION     0.52     0.76     6.44     0  03:06        0.76
  WS02004412           JUNCTION     0.53     0.76     6.40     0  03:07        0.76
  WS02004413           JUNCTION     0.69     0.91     6.38     0  03:07        0.91
  WS02004405           JUNCTION     0.79     1.04     6.89     0  03:05        1.04
  WS02006109           JUNCTION     0.75     1.10     7.72     0  03:02        1.10
  WS02006110           JUNCTION     0.74     1.01     7.60     0  03:04        1.00
  WS02006111           JUNCTION     0.22     0.36     7.06     0  03:03        0.35
  WS02006112           JUNCTION     0.84     1.19     7.08     0  02:58        1.18
  WS02006113           JUNCTION     0.34     0.51     7.40     0  03:02        0.51
  WS02006115           JUNCTION     0.56     0.88     7.02     0  03:05        0.88
  WS02006116           JUNCTION     0.64     0.96     7.00     0  03:05        0.95
  WS02006230           JUNCTION     0.72     1.17     7.92     0  03:02        1.17
  WS02006231           JUNCTION     0.48     0.83     7.95     0  03:02        0.83
  WS02006232           JUNCTION     0.61     0.95     7.99     0  03:02        0.94
  WS02006234           JUNCTION     0.52     0.86     8.02     0  03:02        0.86
  WS02006235           JUNCTION     0.55     0.88     8.05     0  03:03        0.87
  WS02006238           JUNCTION     0.57     0.91     8.05     0  03:02        0.90
  WS02006240           JUNCTION     0.45     0.79     8.08     0  03:03        0.78
  WS02006242           JUNCTION     0.50     0.85     8.12     0  03:02        0.84
  WS02006243           JUNCTION     0.37     0.73     8.15     0  02:20        0.72
  WS02006245           JUNCTION     0.34     0.69     8.18     0  02:20        0.69
  WS02006247           JUNCTION     0.35     0.70     8.20     0  02:20        0.70
  WS02006248           JUNCTION     0.30     0.63     8.22     0  02:20        0.63
  WS02006249           JUNCTION     0.33     0.64     8.24     0  02:20        0.64
  WS02006239           JUNCTION     0.52     0.86     8.07     0  03:02        0.85
  WS02006251           JUNCTION     0.31     0.68     8.35     0  02:20        0.67
  WS02006252           JUNCTION     0.26     0.59     8.83     0  02:19        0.58
  WS02006253           JUNCTION     0.34     0.71     8.35     0  02:20        0.70
  WS02006256           JUNCTION     1.09     2.35     9.28     0  00:00        1.22
  WS02004138           JUNCTION     0.16     0.19     7.44     0  02:20        0.19
  WS02004407           JUNCTION     0.22     0.33     6.64     0  03:06        0.33
  WS02006228           JUNCTION     0.76     1.17     7.82     0  03:02        1.16
  WS02006229           JUNCTION     0.73     1.18     7.87     0  03:02        1.18
  WS02006280           JUNCTION     0.08     0.19     8.46     0  03:02        0.19
  WS02006284           JUNCTION     0.38     0.55     8.95     0  03:02        0.55
  WS02006287           JUNCTION     0.11     0.28     9.24     0  03:01        0.28
  WSF200               JUNCTION     0.21     0.35     5.58     0  03:07        0.35
  HS02004901           JUNCTION     0.14     0.28    10.10     0  03:01        0.28
  HS02004881           JUNCTION     0.01     0.04     9.07     0  03:01        0.04
  HS02004876           JUNCTION     0.05     0.12     9.15     0  03:01        0.12
  HS02004870           JUNCTION     0.02     0.06     9.35     0  03:01        0.06
  HS02004862           JUNCTION     0.02     0.07     9.46     0  03:01        0.07
  HS02004856           JUNCTION     0.08     0.13     9.55     0  03:01        0.13
  HS02004852           JUNCTION     0.01     0.05     9.56     0  03:01        0.05
  HS02004848           JUNCTION     0.01     0.05     9.65     0  03:01        0.05
  HS02004842           JUNCTION     0.34     0.38     9.65     0  03:01        0.38
  HS02004837           JUNCTION     0.03     0.07     9.65     0  03:01        0.07
  HS02004830           JUNCTION     0.04     0.08     9.55     0  03:01        0.08
  HS02004824           JUNCTION     0.03     0.06     9.46     0  03:01        0.06
  HS02004817           JUNCTION     0.45     0.60     9.44     0  03:01        0.60
  HS02004807           JUNCTION     0.14     0.27     9.44     0  03:01        0.27
  HS02004802           JUNCTION     0.17     0.30     9.43     0  03:01        0.30
  HS02004799           JUNCTION     0.14     0.33     9.54     0  03:01        0.33
  HS02004792           JUNCTION     0.04     0.14     9.66     0  03:01        0.14
  HS02004788           JUNCTION     0.03     0.10    10.00     0  03:01        0.10
  HS02004785           JUNCTION     0.06     0.17    10.07     0  03:01        0.17
  HS02004777           JUNCTION     0.16     0.30    10.10     0  03:01        0.30
  HS02004770           JUNCTION     0.13     0.27    10.10     0  03:01        0.27
  HS02004480           JUNCTION     0.10     0.26     9.50     0  03:01        0.26
  HS02004479           JUNCTION     0.13     0.30     9.50     0  03:01        0.30
  HS02004478           JUNCTION     0.07     0.18     9.41     0  03:01        0.18
  YS02001745           JUNCTION     0.67     0.89     8.41     0  03:28        0.89
  YS02001748           JUNCTION     1.06     2.27     9.35     0  02:43        1.33
  YS02001751           JUNCTION     1.24     2.17     9.05     0  02:44        1.53
  YS02001754           JUNCTION     1.49     2.12     8.73     0  02:44        1.81
  YS02001762           JUNCTION     1.69     2.08     8.48     0  02:44        2.02
  YS02001765           JUNCTION     1.65     2.01     8.46     0  02:44        1.97
  YS02001767           JUNCTION     1.61     1.98     8.46     0  02:44        1.92
  YS02001770           JUNCTION     1.61     1.95     8.44     0  02:44        1.91
  YS02001774           JUNCTION     1.67     2.01     8.43     0  02:44        1.97
  YS02001779           JUNCTION     1.42     1.68     8.37     0  02:41        1.68
  YS02001882           JUNCTION     0.53     1.79     8.51     0  02:51        1.60
  YS02001884           JUNCTION     0.62     1.86     8.48     0  02:51        1.70
  YS02001759           JUNCTION     1.73     2.12     8.48     0  02:44        2.06
  YS02001887           JUNCTION     0.70     1.88     8.41     0  02:51        1.78
  YS02001890           JUNCTION     0.73     1.81     8.32     0  02:51        1.80
  YS02001898           JUNCTION     0.50     1.58     8.31     0  02:51        1.55
  YS02001901           JUNCTION     0.61     1.68     8.29     0  02:54        1.66
  YS02001904           JUNCTION     0.59     1.64     8.27     0  02:54        1.63
  YS02001907           JUNCTION     0.92     1.96     8.25     0  02:54        1.96
  YS02001910           JUNCTION     0.71     1.93     8.43     0  02:54        1.77
  YS02001915           JUNCTION     0.51     1.92     8.64     0  02:54        1.58
  YS02001918           JUNCTION     0.25     1.81     8.88     0  02:54        1.25
  YS02001619           JUNCTION     1.21     1.61     8.54     0  02:39        1.49
  YS02001629           JUNCTION     1.56     1.85     8.40     0  02:40        1.84
  YS02001641           JUNCTION     1.66     1.96     8.40     0  02:44        1.93
  YS02001644           JUNCTION     1.66     1.92     8.35     0  02:41        1.92
  YS02001652           JUNCTION     1.51     2.16     8.76     0  02:55        1.94
  YS02001655           JUNCTION     1.27     2.20     9.05     0  02:41        1.77
  YS02001920           JUNCTION     0.35     1.59     8.59     0  02:54        1.32
  YS02001923           JUNCTION     0.19     1.14     8.40     0  02:56        1.08
  YS02001926           JUNCTION     0.25     0.98     8.42     0  02:56        0.95
  YS02001929           JUNCTION     0.14     0.74     8.43     0  02:56        0.67
  YS02001658           JUNCTION     1.00     2.30     9.44     0  02:40        1.55
  YS02001661           JUNCTION     0.78     2.46     9.86     0  02:56        1.37
  YS02001664           JUNCTION     0.35     0.57     8.50     0  02:55        0.56
  YS02001622           JUNCTION     1.23     1.62     8.52     0  02:40        1.49
  YS02001633           JUNCTION     1.65     1.98     8.43     0  02:44        1.94
  YS02001649           JUNCTION     1.70     2.05     8.44     0  02:41        2.05
  YS02001757           JUNCTION     1.82     2.21     8.47     0  02:43        2.16
  YS02001895           JUNCTION     0.49     1.57     8.32     0  02:54        1.54
  YS02001625           JUNCTION     1.51     1.78     8.38     0  02:40        1.78
  YS02163301           JUNCTION     1.59     1.90     8.42     0  02:44        1.87
  YS02163601           JUNCTION     1.70     2.03     8.43     0  02:44        1.98
  YS02164001           JUNCTION     1.64     1.96     8.42     0  02:44        1.91
  YS02001647           JUNCTION     1.49     1.81     8.42     0  02:44        1.79
  YSB1154              JUNCTION     0.27     0.45     9.51     0  03:01        0.45
  YSB6556              JUNCTION     0.16     0.34     9.51     0  03:01        0.34
  YSB1174              JUNCTION     0.22     0.40     9.51     0  03:01        0.40
  YSB1171              JUNCTION     0.42     0.60     9.51     0  03:01        0.60
  YS02006553           JUNCTION     0.92     1.97     8.26     0  02:54        1.96
  YS02006561           JUNCTION     0.30     1.17     7.83     0  02:54        1.07
  YS02006556           JUNCTION     0.89     1.95     8.26     0  02:54        1.91
  YS02006558           JUNCTION     0.93     1.99     8.26     0  02:54        1.95
  YS02001783           JUNCTION     0.53     1.57     7.71     0  02:54        1.46
  YS02001784           JUNCTION     0.55     1.83     7.90     0  02:50        1.41
  YS02001786           JUNCTION     0.50     2.14     8.17     0  02:50        1.25
  YS02001788           JUNCTION     0.45     2.28     8.26     0  02:50        1.12
  YS02001790           JUNCTION     0.58     1.96     7.60     0  02:49        1.29
  YS02001791           JUNCTION     0.57     1.77     7.24     0  02:49        1.27
  YS02001793           JUNCTION     0.80     2.00     6.83     0  02:50        1.80
  WS02004139           JUNCTION     0.61     0.73     5.64     0  02:21        0.73
  WSC                  OUTFALL      0.30     0.40     1.07     0  02:25        0.40
  3                    OUTFALL      0.12     0.23     6.23     0  00:00        0.21
  4                    OUTFALL      0.01     0.14     7.14     0  02:20        0.14
  5                    OUTFALL      0.00     0.00     5.00     0  00:00        0.00
  JK-storage           STORAGE      2.99     5.80     6.60     0  02:50        5.80
  CC-storage           STORAGE      1.04     1.40     8.40     0  03:26        1.40
  XR-storage           STORAGE      6.76     7.72     5.72     0  02:56        7.72
  
  
  *******************
  Node Inflow Summary
  *******************
  
  -------------------------------------------------------------------------------------------------
                                  Maximum  Maximum                  Lateral       Total        Flow
                                  Lateral    Total  Time of Max      Inflow      Inflow     Balance
                                   Inflow   Inflow   Occurrence      Volume      Volume       Error
  Node                 Type           LPS      LPS  days hr:min    10^6 ltr    10^6 ltr     Percent
  -------------------------------------------------------------------------------------------------
  WS02001211           JUNCTION      7.35   380.94     0  04:10       0.207        7.13       0.435
  WS02001212           JUNCTION      0.00   376.39     0  04:11           0         7.1       0.239
  WS02001213           JUNCTION      0.00   374.76     0  04:11           0        7.09       0.287
  WS02003069           JUNCTION      0.32   972.49     0  02:24     0.00902        14.6       0.189
  WS02003072           JUNCTION      0.00   972.54     0  02:24           0        14.6       0.237
  WS02003073           JUNCTION      1.82   974.70     0  02:25      0.0514        14.6       0.267
  WS02003060           JUNCTION     16.53   972.14     0  02:23       0.466        14.7       0.179
  WS02003066           JUNCTION      0.00   655.69     0  03:07           0        7.17       0.062
  WS02003059           JUNCTION      0.00   373.89     0  04:11           0        7.07       0.502
  WS02003067           JUNCTION      0.00   655.54     0  03:07           0        7.18       0.130
  WS02004401           JUNCTION      0.00   660.70     0  03:05           0         7.4       0.268
  WS02004402           JUNCTION      0.00   659.60     0  03:05           0        7.38       0.256
  WS02004403           JUNCTION      0.00   659.01     0  03:05           0        7.36       0.235
  WS02004404           JUNCTION      0.16   658.40     0  03:05     0.00457        7.35       0.179
  WS02004406           JUNCTION      0.00   658.52     0  03:05           0        7.32       0.436
  WS02004409           JUNCTION      0.00   658.48     0  03:06           0        7.28       0.213
  WS02004410           JUNCTION      0.00   657.29     0  03:06           0        7.27       0.246
  WS02004411           JUNCTION      0.00   656.40     0  03:06           0        7.25       0.255
  WS02004412           JUNCTION      0.00   655.94     0  03:07           0        7.23       0.278
  WS02004413           JUNCTION      0.00   655.77     0  03:07           0        7.21       0.415
  WS02004405           JUNCTION      0.04   658.44     0  03:05     0.00107        7.34       0.270
  WS02006109           JUNCTION      1.23   656.43     0  03:02      0.0347        7.45       0.250
  WS02006110           JUNCTION      0.00   656.33     0  03:02           0        7.43       0.230
  WS02006111           JUNCTION      0.00   687.14     0  03:02           0         7.4       0.046
  WS02006112           JUNCTION     14.47   667.48     0  03:03      0.0629        7.46       0.351
  WS02006113           JUNCTION      0.00   657.61     0  03:02           0        7.41       0.101
  WS02006115           JUNCTION      0.00   669.78     0  03:03           0        7.44       0.243
  WS02006116           JUNCTION      0.00   662.57     0  03:03           0        7.42       0.239
  WS02006230           JUNCTION     10.28   381.88     0  07:33        0.29        5.56       0.169
  WS02006231           JUNCTION      0.00   375.65     0  07:33           0        5.28       0.204
  WS02006232           JUNCTION      0.00   376.12     0  07:33           0        5.29       0.252
  WS02006234           JUNCTION      0.00   378.24     0  07:32           0         5.3       0.089
  WS02006235           JUNCTION      0.00   380.24     0  07:32           0        5.34       0.164
  WS02006238           JUNCTION      0.00   295.07     0  07:33           0        2.96       0.179
  WS02006240           JUNCTION      0.00   311.21     0  07:31           0        2.94       0.204
  WS02006242           JUNCTION      0.00   322.71     0  07:31           0        2.94       0.229
  WS02006243           JUNCTION      0.00   331.56     0  07:31           0        2.92      -0.368
  WS02006245           JUNCTION      0.00   338.73     0  07:30           0        2.92       0.182
  WS02006247           JUNCTION      0.00   345.04     0  07:30           0        2.92       0.016
  WS02006248           JUNCTION      0.00   350.31     0  07:30           0        2.92      -0.105
  WS02006249           JUNCTION      0.00   448.52     0  02:20           0        3.11       0.179
  WS02006239           JUNCTION      0.00   300.27     0  07:32           0        2.95       0.234
  WS02006251           JUNCTION      0.08   449.00     0  02:20     0.00217        3.12      -0.010
  WS02006252           JUNCTION      0.00   399.98     0  02:20           0        2.74       0.003
  WS02006253           JUNCTION      1.91    81.00     0  03:01     0.00814        0.38       0.001
  WS02006256           JUNCTION      0.00   600.00     0  00:00           0         7.2       0.033
  WS02004138           JUNCTION      0.00   379.99     0  02:20           0        6.95       0.054
  WS02004407           JUNCTION      0.00   658.80     0  03:05           0        7.29       0.092
  WS02006228           JUNCTION      0.00   655.14     0  03:02           0        7.43       0.179
  WS02006229           JUNCTION      0.00   654.47     0  03:02           0        7.44       0.134
  WS02006280           JUNCTION      0.00   375.54     0  03:02           0        1.89       0.004
  WS02006284           JUNCTION      0.10   375.54     0  03:02      0.0027        1.89       0.064
  WS02006287           JUNCTION      0.00   375.26     0  03:01           0        1.89       0.037
  WSF200               JUNCTION      0.00   655.77     0  03:07           0        7.17       0.062
  HS02004901           JUNCTION     17.47    17.47     0  03:01      0.0757      0.0759       2.380
  HS02004881           JUNCTION      7.55    79.19     0  03:01      0.0331       0.357       0.057
  HS02004876           JUNCTION     14.15    72.10     0  03:01      0.0636       0.324       0.171
  HS02004870           JUNCTION     14.17    58.27     0  03:01      0.0626       0.261       0.043
  HS02004862           JUNCTION     13.95    44.46     0  03:01      0.0685       0.198       0.089
  HS02004856           JUNCTION     10.64    30.79     0  03:01      0.0471       0.131       1.117
  HS02004852           JUNCTION      0.00    20.44     0  03:01           0       0.084       0.069
  HS02004848           JUNCTION     32.07    32.07     0  03:01       0.151       0.151       0.033
  HS02004842           JUNCTION      0.00    11.42     0  03:01           0      0.0801      19.387
  HS02004837           JUNCTION     30.75    41.91     0  03:01       0.288       0.355       0.230
  HS02004830           JUNCTION      0.15    41.84     0  03:01     0.00423       0.346       0.358
  HS02004824           JUNCTION     40.25    81.79     0  03:01       0.198       0.542       0.100
  HS02004817           JUNCTION      0.60    82.18     0  03:01      0.0169       0.558       3.079
  HS02004807           JUNCTION     26.15   107.24     0  03:01       0.115       0.657       0.656
  HS02004802           JUNCTION      0.00   106.49     0  03:01           0       0.653       0.618
  HS02004799           JUNCTION     21.02   227.51     0  03:01      0.0932        1.06       0.236
  HS02004792           JUNCTION     88.55   207.32     0  03:01       0.396       0.966       0.043
  HS02004788           JUNCTION     30.78   119.37     0  03:01       0.177       0.571       0.068
  HS02004785           JUNCTION      0.15    89.79     0  03:01     0.00423       0.396       0.125
  HS02004777           JUNCTION      0.03    90.24     0  03:01    0.000846       0.397       1.326
  HS02004770           JUNCTION     73.89    90.93     0  03:01       0.324       0.398       0.787
  HS02004480           JUNCTION      0.00   269.27     0  03:01           0        1.25       0.098
  HS02004479           JUNCTION      0.00    42.82     0  03:02           0       0.204       0.360
  HS02004478           JUNCTION      0.00   375.17     0  03:01           0        1.89       0.018
  YS02001745           JUNCTION    297.18   381.58     0  02:43        2.34        2.34       0.484
  YS02001748           JUNCTION      0.04   588.39     0  02:43     0.00127        2.33       0.994
  YS02001751           JUNCTION      0.01   309.93     0  03:01     0.00031         2.3       1.038
  YS02001754           JUNCTION      0.26   310.32     0  03:01     0.00733        2.29       1.087
  YS02001762           JUNCTION      0.00   337.99     0  02:55           0        1.86       1.136
  YS02001765           JUNCTION      0.00   337.92     0  02:55           0        1.87       1.311
  YS02001767           JUNCTION      0.54   337.98     0  02:55      0.0151        1.89       1.937
  YS02001770           JUNCTION    373.02   408.16     0  03:30        2.63        2.81       1.136
  YS02001774           JUNCTION      0.00   409.91     0  03:30           0        1.08       2.361
  YS02001779           JUNCTION      0.01   409.08     0  03:30    0.000141        1.05       1.487
  YS02001882           JUNCTION      0.00    18.84     0  02:50           0      0.0202      12.083
  YS02001884           JUNCTION      0.00    22.93     0  02:50           0      0.0564      11.895
  YS02001759           JUNCTION    359.84   664.39     0  02:55        2.43        4.09       0.563
  YS02001887           JUNCTION    453.35   453.58     0  03:01         2.8        2.83       0.296
  YS02001890           JUNCTION      0.00   453.38     0  03:01           0        2.79       0.326
  YS02001898           JUNCTION      0.00   453.42     0  03:01           0        2.77       0.111
  YS02001901           JUNCTION      0.00   453.59     0  03:01           0        2.77       0.248
  YS02001904           JUNCTION      0.00   453.47     0  03:01           0        2.77       0.218
  YS02001907           JUNCTION      0.00   924.68     0  02:57           0        6.12       0.381
  YS02001910           JUNCTION      0.00   498.41     0  02:57           0        3.37       0.342
  YS02001915           JUNCTION    263.65   498.21     0  02:57        1.96         3.4       0.177
  YS02001918           JUNCTION      0.00   252.44     0  02:57           0        1.46       0.128
  YS02001619           JUNCTION    257.27   257.27     0  03:01        1.95        1.95       0.627
  YS02001629           JUNCTION      0.00   208.08     0  02:49           0        1.63       1.784
  YS02001641           JUNCTION      0.00   438.69     0  02:49           0        3.85       0.549
  YS02001644           JUNCTION    282.70  1107.65     0  03:28        2.25        8.99       0.291
  YS02001652           JUNCTION      0.00   373.40     0  03:01           0        2.04       1.149
  YS02001655           JUNCTION      0.15   373.64     0  03:01     0.00434        2.06       1.234
  YS02001920           JUNCTION      2.87   252.38     0  02:57      0.0809        1.45       0.202
  YS02001923           JUNCTION      0.04   311.27     0  02:57     0.00106        1.35       0.035
  YS02001926           JUNCTION      0.05   220.50     0  02:56     0.00147        1.34       0.250
  YS02001929           JUNCTION    129.40   129.40     0  03:01        1.34        1.34       0.041
  YS02001658           JUNCTION      0.00   634.27     0  02:41           0        2.09       1.098
  YS02001661           JUNCTION      0.00   689.99     0  02:54           0        2.78      -0.150
  YS02001664           JUNCTION    327.80   358.56     0  02:53        2.09        2.78       0.251
  YS02001622           JUNCTION      0.00   257.48     0  03:01           0        1.94       1.662
  YS02001633           JUNCTION    287.40   438.60     0  02:49        2.32         3.9       0.829
  YS02001649           JUNCTION      0.00   938.88     0  02:50           0        5.33       0.701
  YS02001757           JUNCTION      0.00  1783.38     0  02:51           0        8.59       1.085
  YS02001895           JUNCTION      0.00   453.48     0  03:01           0        2.78       0.174
  YS02001625           JUNCTION      0.00   257.38     0  03:01           0         1.9       2.072
  YS02163301           JUNCTION      0.00   209.99     0  02:40           0        1.61       1.509
  YS02163601           JUNCTION      0.11   438.57     0  02:49      0.0031        3.87       0.783
  YS02164001           JUNCTION      0.00   438.60     0  02:49           0        3.85       0.515
  YS02001647           JUNCTION      0.00   666.58     0  02:50           0        4.47       0.639
  YSB1154              JUNCTION     25.19    25.19     0  03:01       0.113       0.114       1.286
  YSB6556              JUNCTION      0.00    24.91     0  03:01           0       0.115       1.100
  YSB1174              JUNCTION     19.06    19.06     0  03:01      0.0821      0.0827       1.581
  YSB1171              JUNCTION      0.00    43.19     0  03:01           0       0.203       3.220
  YS02006553           JUNCTION      0.00   666.49     0  03:17           0        5.92       0.267
  YS02006561           JUNCTION      0.00   964.12     0  03:00           0        8.44       0.006
  YS02006556           JUNCTION      0.00   666.43     0  03:17           0        5.92       0.182
  YS02006558           JUNCTION    392.87   964.34     0  03:00        2.57        8.47       0.065
  YS02001783           JUNCTION      0.00   964.08     0  03:00           0        8.44       0.028
  YS02001784           JUNCTION      1.06   965.19     0  03:01      0.0299        8.47       0.044
  YS02001786           JUNCTION      0.06   965.11     0  03:00     0.00159        8.46       0.040
  YS02001788           JUNCTION      0.07   965.21     0  03:00       0.002        8.46       0.023
  YS02001790           JUNCTION      0.15   965.42     0  03:00     0.00437        8.47       0.031
  YS02001791           JUNCTION      0.00   965.39     0  03:00           0        8.46       0.012
  YS02001793           JUNCTION      0.00   965.49     0  03:00           0        8.46       0.004
  WS02004139           JUNCTION      0.32   379.65     0  02:20     0.00905        6.96       0.462
  WSC                  OUTFALL       0.00   975.11     0  02:25           0        14.6       0.000
  3                    OUTFALL       0.00   597.65     0  00:00           0        4.79       0.000
  4                    OUTFALL       0.00   181.12     0  02:20           0       0.181       0.000
  5                    OUTFALL       0.00     0.00     0  00:00           0           0       0.000 ltr
  JK-storage           STORAGE       0.00   965.57     0  03:00           0        8.61     -10.410
  CC-storage           STORAGE       0.00  1783.19     0  02:51           0        6.69       0.980
  XR-storage           STORAGE     690.11   690.11     0  03:01        9.61        10.2      -0.002
  
  
  **********************
  Node Surcharge Summary
  **********************
  
  Surcharging occurs when water rises above the top of the highest conduit.
  ---------------------------------------------------------------------
                                               Max. Height   Min. Depth
                                   Hours       Above Crown    Below Rim
  Node                 Type      Surcharged         Meters       Meters
  ---------------------------------------------------------------------
  WS02004404           JUNCTION        0.83          0.053        2.727
  WS02004406           JUNCTION        0.20          0.027        2.423
  WS02004405           JUNCTION        0.53          0.041        2.759
  WS02006109           JUNCTION        1.33          0.282        1.538
  WS02006110           JUNCTION        1.12          0.102        1.748
  WS02006112           JUNCTION        1.19          0.193        1.487
  WS02006230           JUNCTION        0.63          0.090        1.480
  WS02006231           JUNCTION        0.82          0.121        1.409
  WS02006232           JUNCTION        1.29          0.251        1.229
  WS02006234           JUNCTION        0.94          0.144        1.096
  WS02006235           JUNCTION        1.05          0.172        1.118
  WS02006238           JUNCTION        1.10          0.185        1.245
  WS02006240           JUNCTION        0.74          0.082        1.308
  WS02006242           JUNCTION        0.82          0.124        0.696
  WS02006243           JUNCTION        0.12          0.015        0.755
  WS02006239           JUNCTION        0.86          0.119        1.171
  WS02006252           JUNCTION        0.38          0.190        0.910
  WS02006256           JUNCTION        0.01          1.050        0.000
  WS02006228           JUNCTION        1.32          0.340        1.860
  YS02001748           JUNCTION        5.04          1.190        0.000
  YS02001751           JUNCTION        5.19          1.169        0.031
  YS02001754           JUNCTION        5.38          1.072        0.078
  YS02001762           JUNCTION        5.64          1.082        0.068
  YS02001765           JUNCTION        5.61          1.013        0.087
  YS02001767           JUNCTION        5.58          0.976        0.054
  YS02001770           JUNCTION        5.51          0.920        0.000
  YS02001774           JUNCTION        5.63          1.011        0.039
  YS02001779           JUNCTION        5.37          0.680        0.000
  YS02001882           JUNCTION        0.72          0.793        0.037
  YS02001884           JUNCTION        0.76          0.803        0.067
  YS02001759           JUNCTION        5.66          1.116        0.094
  YS02001887           JUNCTION        0.87          0.826        0.124
  YS02001890           JUNCTION        0.90          0.760        0.000
  YS02001898           JUNCTION        0.68          0.550        0.190
  YS02001901           JUNCTION        0.82          0.680        0.190
  YS02001904           JUNCTION        0.79          0.640        0.210
  YS02001907           JUNCTION        1.50          0.950        0.000
  YS02001910           JUNCTION        0.96          0.926        0.174
  YS02001915           JUNCTION        0.72          0.918        0.082
  YS02001918           JUNCTION        0.47          0.810        0.000
  YS02001619           JUNCTION        5.21          0.610        0.000
  YS02001629           JUNCTION        5.22          0.470        0.000
  YS02001641           JUNCTION        5.62          0.963        0.137
  YS02001644           JUNCTION        5.62          0.920        0.000
  YS02001652           JUNCTION        5.39          1.130        0.000
  YS02001655           JUNCTION        5.21          1.200        0.000
  YS02001920           JUNCTION        0.52          0.586        0.554
  YS02001658           JUNCTION        5.07          1.300        0.000
  YS02001661           JUNCTION        0.20          1.390        0.000
  YS02001622           JUNCTION        5.24          0.620        0.000
  YS02001633           JUNCTION        5.60          0.957        0.103
  YS02001649           JUNCTION        5.64          1.050        0.000
  YS02001757           JUNCTION        5.74          1.210        0.000
  YS02001895           JUNCTION        0.70          0.572        0.178
  YS02001625           JUNCTION        5.40          0.780        0.000
  YS02163301           JUNCTION        5.58          0.901        0.129
  YS02163601           JUNCTION        5.64          1.031        0.049
  YS02164001           JUNCTION        5.61          0.962        0.138
  YS02001647           JUNCTION        5.40          0.809        0.091
  YS02006553           JUNCTION        1.56          0.974        0.216
  YS02006561           JUNCTION        0.61          0.368        0.782
  YS02006556           JUNCTION        1.20          0.913        0.437
  YS02006558           JUNCTION        1.16          0.894        0.506
  YS02001783           JUNCTION        1.11          0.767        0.833
  YS02001784           JUNCTION        1.15          1.031        0.459
  YS02001786           JUNCTION        1.07          1.342        0.088
  YS02001788           JUNCTION        1.06          1.480        0.000
  YS02001790           JUNCTION        2.44          1.157        0.000
  YS02001791           JUNCTION        2.57          0.972        0.948
  YS02001793           JUNCTION        2.75          0.998        1.602
  
  
  *********************
  Node Flooding Summary
  *********************
  
  Flooding refers to all water that overflows a node, whether it ponds or not.
  --------------------------------------------------------------------------
                                                             Total   Maximum
                                 Maximum   Time of Max       Flood    Ponded
                        Hours       Rate    Occurrence      Volume     Depth
  Node                 Flooded       LPS   days hr:min    10^6 ltr    Meters
  --------------------------------------------------------------------------
  WS02006256              0.01    406.11      0  00:00       0.001     0.000
  YS02001748              0.01    224.90      0  02:44       0.000     0.000
  YS02001770              0.01      6.08      0  02:44       0.000     0.000
  YS02001779              2.91    408.95      0  03:30       1.032     0.000
  YS02001890              0.01     14.38      0  02:54       0.000     0.000
  YS02001907              0.34    342.52      0  03:01       0.190     0.000
  YS02001918              0.01     41.64      0  02:54       0.000     0.000
  YS02001619              0.01     20.59      0  02:42       0.000     0.000
  YS02001629              0.01     37.41      0  02:40       0.000     0.000
  YS02001644              4.77   1107.34      0  03:28       7.417     0.000
  YS02001652              0.01     24.63      0  02:59       0.000     0.000
  YS02001655              0.01     31.82      0  02:41       0.000     0.000
  YS02001658              0.01    390.10      0  02:41       0.001     0.000
  YS02001661              0.01    194.32      0  02:59       0.001     0.000
  YS02001622              0.01     46.76      0  02:40       0.000     0.000
  YS02001649              0.07     53.62      0  02:59       0.004     0.000
  YS02001757              0.01     21.98      0  02:44       0.000     0.000
  YS02001625              0.83    167.72      0  03:01       0.233     0.000
  YS02001788              0.01    110.41      0  02:50       0.000     0.000
  YS02001790              0.01    120.28      0  02:49       0.000     0.000
  JK-storage              1.98    933.83      0  03:20       2.417     0.000
  XR-storage              4.90    486.28      0  03:20       2.333     0.000
  
  
  **********************
  Storage Volume Summary
  **********************
  
  --------------------------------------------------------------------------------------------------
                         Average     Avg  Evap Exfil       Maximum     Max    Time of Max    Maximum
                          Volume    Pcnt  Pcnt  Pcnt        Volume    Pcnt     Occurrence    Outflow
  Storage Unit           1000 m3    Full  Loss  Loss       1000 m3    Full    days hr:min        LPS
  --------------------------------------------------------------------------------------------------
  JK-storage               0.150      52     0     0         0.291     100       0  02:50     600.00
  CC-storage               2.889      18     0     0         3.909      25       0  03:26     399.98
  XR-storage               0.811      88     0     0         0.926     100       0  02:56     379.99
  
  
  ***********************
  Outfall Loading Summary
  ***********************
  
  -----------------------------------------------------------
                         Flow       Avg       Max       Total
                         Freq      Flow      Flow      Volume
  Outfall Node           Pcnt       LPS       LPS    10^6 ltr
  -----------------------------------------------------------
  WSC                   99.99    592.43    975.11      14.591
  3                     92.62    253.23    597.65       4.792
  4                     17.44     56.49    181.12       0.181
  5                      0.00      0.00      0.00       0.000
  -----------------------------------------------------------
  System                52.51    902.14   1530.71      19.563
  
  
  ********************
  Link Flow Summary
  ********************
  
  -----------------------------------------------------------------------------
                                 Maximum  Time of Max   Maximum    Max/    Max/
                                  |Flow|   Occurrence   |Veloc|    Full    Full
  Link                 Type          LPS  days hr:min     m/sec    Flow   Depth
  -----------------------------------------------------------------------------
  WS02003066WSF200     CONDUIT    655.77     0  03:07      2.81    0.11    0.26
  WS02006287WS02006284 CONDUIT    375.44     0  03:02      1.98    0.17    0.29
  WS02006284WS02006280 CONDUIT    375.54     0  03:02      2.22    0.16    0.27
  WS02006280WS02006229 CONDUIT    375.57     0  03:02      3.58    0.08    0.19
  WS02006229WS02006228 CONDUIT    655.14     0  03:02      1.30    2.17    1.00
  WS02006256WS02006235 CONDUIT    177.52     0  00:01      2.73    1.88    1.00
  WS02006253WS02006251 CONDUIT     80.13     0  02:48      0.46    0.24    0.98
  WS02006252WS02006251 CONDUIT    399.99     0  02:20      3.18    1.47    1.00
  WS02006251WS02006249 CONDUIT    448.52     0  02:20      1.20    1.29    0.94
  WS02006249WS02006248 CONDUIT    350.31     0  07:30      1.16    1.92    0.89
  WS02006248WS02006247 CONDUIT    345.04     0  07:30      1.13    0.75    0.94
  WS02006247WS02006245 CONDUIT    338.73     0  07:30      1.09    2.69    0.99
  WS02006245WS02006243 CONDUIT    331.56     0  07:31      1.10    0.98    1.00
  WS02006243WS02006242 CONDUIT    322.71     0  07:31      0.96    0.69    1.00
  WS02006242WS02006240 CONDUIT    311.21     0  07:31      0.86    1.24    1.00
  WS02006240WS02006239 CONDUIT    300.27     0  07:32      0.85    0.94    1.00
  WS02006239WS02006238 CONDUIT    295.07     0  07:33      0.78    0.94    1.00
  WS02006238WS02006235 CONDUIT    293.99     0  07:33      1.32    0.66    1.00
  WS02006235WS02006234 CONDUIT    378.24     0  07:32      1.04    3.99    1.00
  WS02006234WS02006232 CONDUIT    376.12     0  07:33      1.17    0.76    1.00
  WS02006232WS02006231 CONDUIT    375.65     0  07:33      1.05    0.79    1.00
  WS02006231WS02006230 CONDUIT    371.60     0  07:33      1.36    5.64    1.00
  WS02006230WS02006229 CONDUIT    378.90     0  07:35      0.98    8.43    1.00
  WS02006228WS02006109 CONDUIT    655.20     0  03:02      1.30    2.86    1.00
  WS02006116WS02004401 CONDUIT    660.70     0  03:05      0.85    0.91    0.96
  WS02006115WS02006116 CONDUIT    662.57     0  03:03      0.91    0.85    0.89
  WS02006113WS02006111 CONDUIT    687.14     0  03:02      2.59    0.82    0.54
  WS02006112WS02006115 CONDUIT    669.78     0  03:03      0.88    0.40    0.94
  WS02006111WS02006112 CONDUIT    656.64     0  03:03      1.72    0.31    0.72
  WS02006110WS02006113 CONDUIT    657.61     0  03:02      1.50    0.60    0.82
  WS02006109WS02006110 CONDUIT    656.33     0  03:02      1.31    1.26    1.00
  WS02004411WS02004412 CONDUIT    655.94     0  03:07      1.02    0.93    0.76
  WS02004401WS02004402 CONDUIT    659.60     0  03:05      0.85    0.79    0.98
  WS02004413WS02003067 CONDUIT    655.54     0  03:07      1.24    0.28    0.64
  WS02004412WS02004413 CONDUIT    655.77     0  03:07      0.94    0.44    0.84
  WS02004410WS02004411 CONDUIT    656.40     0  03:06      1.03    0.90    0.76
  WS02004409WS02004410 CONDUIT    657.29     0  03:06      1.04    0.85    0.75
  WS02004407WS02004409 CONDUIT    658.48     0  03:06      1.53    0.23    0.54
  WS02004406WS02004407 CONDUIT    658.80     0  03:05      1.19    0.29    0.66
  WS02004405WS02004406 CONDUIT    658.52     0  03:05      0.84    1.30    1.00
  WS02004404WS02004405 CONDUIT    658.41     0  03:05      0.84    6.45    1.00
  WS02004403WS02004404 CONDUIT    658.24     0  03:05      0.84    0.48    1.00
  WS02004402WS02004403 CONDUIT    659.01     0  03:05      0.84    0.95    0.99
  WS02004139WS02001211 CONDUIT    373.59     0  04:10      0.69    0.47    0.59
  WS02004138WS02004139 CONDUIT    379.33     0  02:20      2.94    0.08    0.43
  WS02003067WS02003066 CONDUIT    655.69     0  03:07      1.35    0.21    0.45
  WS02001213WS02003059 CONDUIT    373.89     0  04:11      0.64    0.62    0.78
  WS02001212WS02001213 CONDUIT    374.76     0  04:11      1.19    0.58    0.47
  WS02001211WS02001212 CONDUIT    376.39     0  04:11      0.74    0.29    0.64
  WS02003072WS02003073 CONDUIT    972.88     0  02:25      1.75    2.10    0.49
  WS02003069WS02003072 CONDUIT    972.54     0  02:24      1.64    0.47    0.52
  WS02003060WS02003069 CONDUIT    972.17     0  02:24      1.88    0.38    0.47
  WS02003059WS02003060 CONDUIT    373.11     0  04:12      0.82    0.24    0.67
  HS02004901HS02004770 CONDUIT     17.71     0  03:01      0.07    0.07    0.39
  HS02004876HS02004881 CONDUIT     71.90     0  03:01      0.92    0.76    0.11
  HS02004870HS02004876 CONDUIT     58.03     0  03:01      0.63    0.04    0.13
  HS02004842HS02004848 CONDUIT     11.42     0  03:01      0.05    0.01    0.30
  HS02004837HS02004842 CONDUIT     11.94     0  03:02      0.41    0.01    0.32
  HS02004830HS02004837 CONDUIT     41.69     0  03:01      0.56    0.04    0.11
  HS02004824HS02004830 CONDUIT     41.67     0  03:01      0.58    0.05    0.10
  HS02004817HS02004824 CONDUIT     81.58     0  03:01      0.25    0.04    0.47
  HS02004770HS02004777 CONDUIT     90.21     0  03:01      0.32    0.16    0.41
  HS02004799HS02004480 CONDUIT    226.97     0  03:01      0.78    0.29    0.42
  HS02004792HS02004799 CONDUIT    206.60     0  03:01      0.88    0.13    0.33
  HS02004788HS02004792 CONDUIT    118.94     0  03:01      1.01    0.08    0.17
  HS02004785HS02004788 CONDUIT     89.52     0  03:02      0.66    0.67    0.19
  HS02004777HS02004785 CONDUIT     89.64     0  03:01      0.38    0.11    0.33
  HS02004480HS02004478 CONDUIT    269.12     0  03:01      1.20    1.13    0.32
  HS02004479HS02004480 CONDUIT     44.17     0  03:02      0.23    0.04    0.40
  HS02004862HS02004870 CONDUIT     44.23     0  03:01      0.64    0.05    0.10
  HS02004848HS02004852 CONDUIT     20.44     0  03:01      0.44    0.02    0.07
  HS02004856HS02004862 CONDUIT     30.56     0  03:01      0.47    0.03    0.09
  HS02004852HS02004856 CONDUIT     20.26     0  03:01      0.24    0.02    0.12
  HS02004802HS02004478 CONDUIT    106.59     0  03:02      0.45    0.09    0.35
  HS02004478WS02006287 CONDUIT    375.26     0  03:01      1.68    0.11    0.25
  HS02004817HS02004807 CONDUIT     82.18     0  03:01      0.19    0.05    0.62
  HS02004807HS02004802 CONDUIT    106.49     0  03:01      0.38    0.20    0.40
  YS02001759YS02001757 CONDUIT    664.33     0  02:55      0.85    0.47    1.00
  YS02001762YS02001759 CONDUIT    337.80     0  02:55      0.43    0.39    1.00
  YS02001765YS02001762 CONDUIT    337.99     0  02:55      0.43    0.32    1.00
  YS02001770YS02001767 CONDUIT    337.45     0  02:55      0.43    1.34    1.00
  YS02001774YS02001770 CONDUIT    409.91     0  03:30      0.52    0.26    1.00
  YS02001779YS02001774 CONDUIT    409.07     0  03:30      0.52    0.21    1.00
  YS02001649YS02001757 CONDUIT    939.06     0  02:50      1.20    0.57    1.00
  YS02001767YS02001765 CONDUIT    337.92     0  02:55      0.43    0.43    1.00
  YS02006561YS02001783 CONDUIT    964.08     0  03:00      2.17    0.50    1.00
  YS02001783YS02001784 CONDUIT    964.13     0  03:01      1.92    1.33    1.00
  YS02001784YS02001785 CONDUIT    965.06     0  03:00      1.92    2.25    1.00
  YS02001788YS02001790 CONDUIT    965.27     0  03:00      2.42    0.71    1.00
  YS02001790YS02001791 CONDUIT    965.39     0  03:00      3.02    1.05    1.00
  YS02001791YS02001793 CONDUIT    965.49     0  03:00      5.97    0.41    1.00
  YS02001910YS02001907 CONDUIT    498.28     0  02:57      0.63    0.28    1.00
  YS02001786YS02001788 CONDUIT    965.14     0  03:00      2.31    1.86    1.00
  YS02001915YS02001910 CONDUIT    498.41     0  02:57      0.63    0.25    1.00
  YS02001918YS02001915 CONDUIT    253.32     0  02:57      0.44    0.14    1.00
  YS02001923YS02001920 CONDUIT    249.51     0  02:57      0.68    0.11    1.00
  YS02001926YS02001923 CONDUIT    311.23     0  02:57      0.79    0.44    0.93
  YS02001929YS02001926 CONDUIT    220.45     0  02:56      0.85    0.10    0.83
  YS02001920YS02001918 CONDUIT    252.44     0  02:57      0.67    0.24    1.00
  YS02001629YS02163301 CONDUIT    209.99     0  02:40      0.27    0.26    1.00
  YS02001619YS02001622 CONDUIT    257.48     0  03:01      0.61    0.38    1.00
  YS02001622YS02001625 CONDUIT    257.38     0  03:01      0.33    0.14    1.00
  YS02001625YS02001629 CONDUIT    208.08     0  02:49      0.26    0.10    1.00
  YS02163301YS02001633 CONDUIT    209.92     0  02:40      0.27    0.20    1.00
  YS02163601YS02164001 CONDUIT    438.60     0  02:49      0.56    0.39    1.00
  YS02164001YS02001641 CONDUIT    438.69     0  02:49      0.56    0.60    1.00
  YS02001641YS02001644 CONDUIT    438.83     0  02:49      0.56    1.42    1.00
  YS02001647YS02001649 CONDUIT    666.54     0  02:50      0.85    0.35    1.00
  YS02006553YS02006556 CONDUIT    666.43     0  03:17      0.85    0.57    1.00
  YS02006556YS02006558 CONDUIT    667.16     0  03:17      0.85    0.53    1.00
  YSB6556YSB1171       CONDUIT     24.81     0  03:03      0.09    0.03    0.67
  YS02001907YS02006553 CONDUIT    666.49     0  03:17      0.74    0.78    1.00
  YS02006558YS02006561 CONDUIT    964.12     0  03:00      3.51    2.13    1.00
  YS02001633YS02163601 CONDUIT    438.46     0  02:49      0.56    0.46    1.00
  YS02001644YS02001647 CONDUIT    666.58     0  02:50      0.85    0.39    1.00
  YS02001745YS02001748 CONDUIT    588.35     0  02:43      1.48    0.23    0.95
  YS02001748YS02001751 CONDUIT    309.92     0  03:01      1.05    0.16    1.00
  YS02001751YS02001754 CONDUIT    310.06     0  03:01      0.88    0.15    1.00
  YS02001754YS02001757 CONDUIT    310.56     0  03:01      0.40    0.13    1.00
  YS02001882YS02001884 CONDUIT     18.84     0  02:50      0.09    0.02    1.00
  YS02001884YS02001887 CONDUIT     22.93     0  02:50      0.05    0.03    1.00
  YS02001890YS02001895 CONDUIT    453.48     0  03:01      0.58    0.21    1.00
  YS02001895YS02001898 CONDUIT    453.42     0  03:01      0.59    0.79    1.00
  YS02001898YS02001901 CONDUIT    453.59     0  03:01      0.58    0.29    1.00
  YS02001901YS02001904 CONDUIT    453.47     0  03:01      0.58    0.70    1.00
  YS02001904YS02001907 CONDUIT    453.57     0  03:01      0.58    0.16    1.00
  YS02001887YS02001890 CONDUIT    453.38     0  03:01      0.58    0.78    1.00
  YS02001652YS02001649 CONDUIT    373.55     0  03:01      0.50    0.19    1.00
  YS02001655YS02001652 CONDUIT    373.40     0  03:01      0.93    0.18    1.00
  YS02001658YS02001655 CONDUIT    373.48     0  03:01      1.21    0.16    1.00
  YS02001661YS02001658 CONDUIT    634.27     0  02:41      1.56    0.25    1.00
  YS02001664YS02001661 CONDUIT    689.99     0  02:54      1.61    0.22    0.73
  YSB1154YSB6556       CONDUIT     24.91     0  03:01      0.19    0.04    0.56
  YSB1174YSB1171       CONDUIT     18.78     0  03:01      0.07    0.03    0.68
  YSB1171HS02004479    CONDUIT     42.82     0  03:02      0.54    0.03    0.53
  HS02004881HS02006253 CONDUIT     79.15     0  03:01      2.12    0.02    0.28
  YS02001793JiankangQianchi CONDUIT    965.57     0  03:00     14.36    0.08    1.00
  YS02001757CaochengTiaoxuchi CONDUIT   1783.19     0  02:51      2.42    0.78    1.00
  WSF200WS02003060     CONDUIT    655.95     0  03:08      1.81    0.15    0.36
  1                    CONDUIT    975.11     0  02:25      3.30    0.34    0.40
  2                    CONDUIT    181.12     0  02:20      5.69    0.43    0.46
  3                    CONDUIT    597.65     0  00:00     10.05    0.95    0.86
  4                    CONDUIT      0.00     0  00:00      0.00    0.00    0.00
  CC-Pump-1            PUMP       200.00     0  01:59              1.00
  CC-Pump-2            PUMP       199.98     0  02:20              1.00
  JK-Pump-1            PUMP       300.00     0  00:00              1.00
  JK-Pump-2            PUMP       300.00     0  00:00              1.00
  XR-Pump-1            PUMP        95.00     0  01:20              1.00
  XR-Pump-2            PUMP        95.00     0  00:00              1.00
  XR-Pump-3            PUMP        95.00     0  00:20              1.00
  XR-Pump-4            PUMP        95.00     0  00:00              1.00
  
  
  ***************************
  Flow Classification Summary
  ***************************
  
  -------------------------------------------------------------------------------------
                      Adjusted    ---------- Fraction of Time in Flow Class ---------- 
                       /Actual         Up    Down  Sub   Sup   Up    Down  Norm  Inlet 
  Conduit               Length    Dry  Dry   Dry   Crit  Crit  Crit  Crit  Ltd   Ctrl  
  -------------------------------------------------------------------------------------
  WS02003066WSF200        1.00   0.07  0.00  0.00  0.00  0.93  0.00  0.00  0.58  0.00
  WS02006287WS02006284    1.00   0.03  0.01  0.00  0.56  0.40  0.00  0.00  0.65  0.00
  WS02006284WS02006280    1.00   0.04  0.00  0.00  0.00  0.00  0.00  0.96  0.00  0.00
  WS02006280WS02006229    1.00   0.04  0.00  0.00  0.00  0.00  0.00  0.96  0.00  0.00
  WS02006229WS02006228    1.00   0.00  0.00  0.00  0.98  0.00  0.00  0.02  0.00  0.00
  WS02006256WS02006235    1.00   0.00  0.00  0.00  1.00  0.00  0.00  0.00  0.00  0.00
  WS02006253WS02006251    1.00   0.02  0.01  0.00  0.96  0.00  0.00  0.00  0.00  0.00
  WS02006252WS02006251    1.00   0.07  0.00  0.00  0.00  0.00  0.93  0.00  0.00  0.00
  WS02006251WS02006249    1.00   0.00  0.00  0.00  1.00  0.00  0.00  0.00  0.38  0.00
  WS02006249WS02006248    1.00   0.00  0.02  0.00  0.75  0.00  0.23  0.00  0.00  0.00
  WS02006248WS02006247    1.00   0.02  0.00  0.00  0.97  0.00  0.00  0.01  0.28  0.00
  WS02006247WS02006245    1.00   0.02  0.00  0.00  0.96  0.00  0.00  0.02  0.00  0.00
  WS02006245WS02006243    1.00   0.02  0.00  0.00  0.94  0.00  0.00  0.04  0.02  0.00
  WS02006243WS02006242    1.00   0.01  0.00  0.00  0.99  0.00  0.00  0.00  0.22  0.00
  WS02006242WS02006240    1.00   0.01  0.00  0.00  0.99  0.00  0.00  0.00  0.00  0.00
  WS02006240WS02006239    1.00   0.00  0.00  0.00  0.96  0.00  0.00  0.03  0.02  0.00
  WS02006239WS02006238    1.00   0.00  0.00  0.00  1.00  0.00  0.00  0.00  0.00  0.00
  WS02006238WS02006235    1.00   0.00  0.00  0.00  1.00  0.00  0.00  0.00  0.00  0.00
  WS02006235WS02006234    1.00   0.00  0.00  0.00  0.96  0.00  0.04  0.00  0.00  0.00
  WS02006234WS02006232    1.00   0.00  0.00  0.00  1.00  0.00  0.00  0.00  0.03  0.00
  WS02006232WS02006231    1.00   0.00  0.00  0.00  0.99  0.00  0.01  0.00  0.00  0.00
  WS02006231WS02006230    1.00   0.00  0.00  0.00  0.41  0.00  0.58  0.00  0.00  0.00
  WS02006230WS02006229    1.00   0.00  0.00  0.00  0.98  0.00  0.00  0.02  0.01  0.00
  WS02006228WS02006109    1.00   0.00  0.00  0.00  1.00  0.00  0.00  0.00  0.00  0.00
  WS02006116WS02004401    1.00   0.02  0.00  0.00  0.98  0.00  0.00  0.00  0.00  0.00
  WS02006115WS02006116    1.00   0.02  0.00  0.00  0.97  0.00  0.00  0.01  0.01  0.00
  WS02006113WS02006111    1.00   0.02  0.00  0.00  0.00  0.98  0.00  0.00  0.13  0.00
  WS02006112WS02006115    1.00   0.02  0.00  0.00  0.98  0.00  0.00  0.00  0.00  0.00
  WS02006111WS02006112    1.00   0.02  0.00  0.00  0.98  0.00  0.00  0.00  0.93  0.00
  WS02006110WS02006113    1.00   0.01  0.00  0.00  0.98  0.00  0.00  0.00  0.00  0.00
  WS02006109WS02006110    1.00   0.00  0.01  0.00  0.98  0.00  0.00  0.00  0.00  0.00
  WS02004411WS02004412    1.00   0.05  0.00  0.00  0.95  0.00  0.00  0.00  0.00  0.00
  WS02004401WS02004402    1.00   0.02  0.00  0.00  0.98  0.00  0.00  0.00  0.00  0.00
  WS02004413WS02003067    1.00   0.05  0.01  0.00  0.00  0.00  0.94  0.00  0.00  0.00
  WS02004412WS02004413    1.00   0.05  0.00  0.00  0.95  0.00  0.00  0.00  0.01  0.00
  WS02004410WS02004411    1.00   0.05  0.00  0.00  0.95  0.00  0.00  0.00  0.00  0.00
  WS02004409WS02004410    1.00   0.05  0.00  0.00  0.95  0.00  0.00  0.00  0.00  0.00
  WS02004407WS02004409    1.00   0.05  0.00  0.00  0.95  0.00  0.00  0.00  0.80  0.00
  WS02004406WS02004407    1.00   0.00  0.04  0.00  0.95  0.00  0.00  0.00  0.00  0.00
  WS02004405WS02004406    1.00   0.00  0.00  0.00  1.00  0.00  0.00  0.00  0.02  0.00
  WS02004404WS02004405    1.00   0.00  0.00  0.00  1.00  0.00  0.00  0.00  0.00  0.00
  WS02004403WS02004404    1.00   0.00  0.02  0.00  0.98  0.00  0.00  0.00  0.02  0.00
  WS02004402WS02004403    1.00   0.02  0.00  0.00  0.98  0.00  0.00  0.00  0.00  0.00
  WS02004139WS02001211    1.00   0.00  0.00  0.00  0.99  0.00  0.01  0.00  0.00  0.00
  WS02004138WS02004139    1.00   0.00  0.00  0.00  0.99  0.01  0.00  0.00  1.00  0.00
  WS02003067WS02003066    1.00   0.06  0.01  0.00  0.93  0.00  0.00  0.00  0.00  0.00
  WS02001213WS02003059    1.00   0.00  0.01  0.00  0.99  0.00  0.00  0.00  0.00  0.00
  WS02001212WS02001213    1.00   0.01  0.00  0.00  0.76  0.00  0.24  0.00  0.00  0.00
  WS02001211WS02001212    1.00   0.00  0.01  0.00  0.99  0.00  0.00  0.00  0.00  0.00
  WS02003072WS02003073    1.00   0.00  0.00  0.00  0.00  0.00  0.00  1.00  0.00  0.00
  WS02003069WS02003072    1.00   0.00  0.00  0.00  0.99  0.01  0.00  0.00  0.32  0.00
  WS02003060WS02003069    1.00   0.00  0.00  0.00  0.99  0.01  0.00  0.00  0.06  0.00
  WS02003059WS02003060    1.00   0.00  0.00  0.00  0.99  0.01  0.00  0.00  0.01  0.00
  HS02004901HS02004770    1.00   0.04  0.00  0.00  0.96  0.00  0.00  0.00  0.00  0.00
  HS02004876HS02004881    1.00   0.02  0.00  0.00  0.89  0.10  0.00  0.00  0.00  0.00
  HS02004870HS02004876    1.00   0.01  0.00  0.00  0.99  0.00  0.00  0.00  0.95  0.00
  HS02004842HS02004848    1.00   0.00  0.04  0.00  0.96  0.00  0.00  0.00  0.58  0.00
  HS02004837HS02004842    1.00   0.00  0.00  0.00  0.99  0.01  0.00  0.00  0.11  0.00
  HS02004830HS02004837    1.00   0.00  0.00  0.00  1.00  0.00  0.00  0.00  0.99  0.00
  HS02004824HS02004830    1.00   0.00  0.00  0.00  1.00  0.00  0.00  0.00  0.00  0.00
  HS02004817HS02004824    1.00   0.00  0.00  0.00  1.00  0.00  0.00  0.00  1.00  0.00
  HS02004770HS02004777    1.00   0.00  0.04  0.00  0.96  0.00  0.00  0.00  0.03  0.00
  HS02004799HS02004480    1.00   0.00  0.02  0.00  0.96  0.00  0.02  0.00  0.00  0.00
  HS02004792HS02004799    1.00   0.00  0.00  0.00  0.99  0.01  0.00  0.00  0.98  0.00
  HS02004788HS02004792    1.00   0.00  0.00  0.00  0.99  0.01  0.00  0.00  0.98  0.00
  HS02004785HS02004788    1.00   0.00  0.00  0.00  1.00  0.00  0.00  0.00  0.00  0.00
  HS02004777HS02004785    1.00   0.00  0.00  0.00  1.00  0.00  0.00  0.00  0.14  0.00
  HS02004480HS02004478    1.00   0.04  0.00  0.00  0.64  0.00  0.00  0.32  0.00  0.00
  HS02004479HS02004480    1.00   0.02  0.00  0.00  0.98  0.00  0.00  0.00  0.13  0.00
  HS02004862HS02004870    1.00   0.00  0.00  0.00  1.00  0.00  0.00  0.00  0.05  0.00
  HS02004848HS02004852    1.00   0.04  0.00  0.00  0.96  0.00  0.00  0.00  0.61  0.00
  HS02004856HS02004862    1.00   0.00  0.05  0.00  0.95  0.00  0.00  0.00  0.80  0.00
  HS02004852HS02004856    1.00   0.04  0.00  0.00  0.96  0.00  0.00  0.00  0.85  0.00
  HS02004802HS02004478    1.00   0.04  0.00  0.00  0.96  0.00  0.00  0.00  0.03  0.00
  HS02004478WS02006287    1.00   0.04  0.00  0.00  0.68  0.28  0.00  0.00  0.66  0.00
  HS02004817HS02004807    1.00   0.00  0.04  0.00  0.96  0.00  0.00  0.00  0.01  0.00
  HS02004807HS02004802    1.00   0.04  0.00  0.00  0.96  0.00  0.00  0.00  0.00  0.00
  YS02001759YS02001757    1.00   0.00  0.00  0.00  1.00  0.00  0.00  0.00  0.16  0.00
  YS02001762YS02001759    1.00   0.00  0.00  0.00  1.00  0.00  0.00  0.00  0.04  0.00
  YS02001765YS02001762    1.00   0.00  0.00  0.00  1.00  0.00  0.00  0.00  0.16  0.00
  YS02001770YS02001767    1.00   0.00  0.00  0.00  1.00  0.00  0.00  0.00  0.00  0.00
  YS02001774YS02001770    1.00   0.00  0.04  0.00  0.96  0.00  0.00  0.00  0.04  0.00
  YS02001779YS02001774    1.00   0.00  0.00  0.00  1.00  0.00  0.00  0.00  0.21  0.00
  YS02001649YS02001757    1.00   0.00  0.00  0.00  1.00  0.00  0.00  0.00  0.17  0.00
  YS02001767YS02001765    1.00   0.00  0.00  0.00  1.00  0.00  0.00  0.00  0.00  0.00
  YS02006561YS02001783    1.00   0.05  0.00  0.00  0.42  0.53  0.00  0.00  0.55  0.00
  YS02001783YS02001784    1.00   0.00  0.05  0.00  0.95  0.00  0.00  0.00  0.01  0.00
  YS02001784YS02001785    1.00   0.00  0.00  0.00  1.00  0.00  0.00  0.00  0.20  0.00
  YS02001788YS02001790    1.00   0.00  0.00  0.00  0.47  0.53  0.00  0.00  0.50  0.00
  YS02001790YS02001791    1.00   0.00  0.00  0.00  0.44  0.56  0.00  0.00  0.37  0.00
  YS02001791YS02001793    1.00   0.00  0.00  0.00  0.45  0.55  0.00  0.00  0.02  0.00
  YS02001910YS02001907    1.00   0.00  0.00  0.00  0.98  0.00  0.00  0.02  0.13  0.00
  YS02001786YS02001788    1.00   0.00  0.00  0.00  0.45  0.55  0.00  0.00  0.00  0.00
  YS02001915YS02001910    1.00   0.00  0.00  0.00  0.99  0.01  0.00  0.00  0.18  0.00
  YS02001918YS02001915    1.00   0.00  0.01  0.00  0.99  0.00  0.00  0.00  0.58  0.00
  YS02001923YS02001920    1.00   0.00  0.00  0.00  1.00  0.00  0.00  0.00  0.86  0.00
  YS02001926YS02001923    1.00   0.00  0.03  0.00  0.11  0.00  0.86  0.00  0.00  0.00
  YS02001929YS02001926    1.00   0.00  0.04  0.00  0.96  0.00  0.00  0.00  0.79  0.00
  YS02001920YS02001918    1.00   0.00  0.01  0.00  0.99  0.00  0.00  0.00  0.00  0.00
  YS02001629YS02163301    1.00   0.04  0.00  0.00  0.95  0.00  0.00  0.00  0.00  0.00
  YS02001619YS02001622    1.00   0.04  0.00  0.00  0.96  0.00  0.00  0.00  0.00  0.00
  YS02001622YS02001625    1.00   0.04  0.00  0.00  0.96  0.00  0.00  0.00  0.07  0.00
  YS02001625YS02001629    1.00   0.04  0.01  0.00  0.93  0.00  0.02  0.00  0.00  0.00
  YS02163301YS02001633    1.00   0.00  0.04  0.00  0.96  0.00  0.00  0.00  0.00  0.00
  YS02163601YS02164001    1.00   0.00  0.03  0.00  0.97  0.00  0.00  0.00  0.00  0.00
  YS02164001YS02001641    1.00   0.01  0.02  0.00  0.97  0.00  0.00  0.00  0.06  0.00
  YS02001641YS02001644    1.00   0.00  0.01  0.00  0.99  0.00  0.00  0.00  0.00  0.00
  YS02001647YS02001649    1.00   0.00  0.05  0.00  0.95  0.00  0.00  0.00  0.01  0.00
  YS02006553YS02006556    1.00   0.02  0.00  0.00  0.98  0.00  0.00  0.00  0.03  0.00
  YS02006556YS02006558    1.00   0.00  0.00  0.00  1.00  0.00  0.00  0.00  0.00  0.00
  YSB6556YSB1171          1.00   0.02  0.01  0.00  0.96  0.00  0.00  0.00  0.00  0.00
  YS02001907YS02006553    1.00   0.00  0.01  0.00  0.98  0.00  0.00  0.00  0.00  0.00
  YS02006558YS02006561    1.00   0.05  0.00  0.00  0.14  0.81  0.00  0.00  0.48  0.00
  YS02001633YS02163601    1.00   0.00  0.01  0.00  0.99  0.00  0.00  0.00  0.16  0.00
  YS02001644YS02001647    1.00   0.00  0.05  0.00  0.95  0.00  0.00  0.00  0.00  0.00
  YS02001745YS02001748    1.00   0.00  0.00  0.00  0.88  0.01  0.00  0.11  0.06  0.00
  YS02001748YS02001751    1.00   0.00  0.00  0.00  0.97  0.03  0.00  0.00  0.15  0.00
  YS02001751YS02001754    1.00   0.00  0.00  0.00  0.94  0.00  0.00  0.05  0.02  0.00
  YS02001754YS02001757    1.00   0.00  0.00  0.00  0.99  0.01  0.00  0.00  0.20  0.00
  YS02001882YS02001884    1.00   0.04  0.00  0.00  0.96  0.00  0.00  0.00  0.00  0.00
  YS02001884YS02001887    1.00   0.02  0.01  0.00  0.97  0.00  0.00  0.00  0.00  0.00
  YS02001890YS02001895    1.00   0.00  0.04  0.00  0.96  0.00  0.00  0.00  0.00  0.00
  YS02001895YS02001898    1.00   0.04  0.00  0.00  0.95  0.00  0.01  0.00  0.00  0.00
  YS02001898YS02001901    1.00   0.05  0.00  0.00  0.95  0.00  0.00  0.00  0.02  0.00
  YS02001901YS02001904    1.00   0.05  0.00  0.00  0.95  0.00  0.00  0.00  0.00  0.00
  YS02001904YS02001907    1.00   0.00  0.04  0.00  0.95  0.00  0.00  0.00  0.00  0.00
  YS02001887YS02001890    1.00   0.00  0.00  0.00  0.98  0.00  0.02  0.00  0.00  0.00
  YS02001652YS02001649    1.00   0.00  0.00  0.00  1.00  0.00  0.00  0.00  0.18  0.00
  YS02001655YS02001652    1.00   0.00  0.00  0.00  0.94  0.00  0.00  0.05  0.02  0.00
  YS02001658YS02001655    1.00   0.00  0.04  0.00  0.93  0.03  0.00  0.00  0.11  0.00
  YS02001661YS02001658    1.00   0.04  0.00  0.00  0.88  0.08  0.00  0.00  0.06  0.00
  YS02001664YS02001661    1.00   0.04  0.00  0.00  0.84  0.13  0.00  0.00  0.22  0.00
  YSB1154YSB6556          1.00   0.04  0.00  0.00  0.96  0.00  0.00  0.00  0.02  0.00
  YSB1174YSB1171          1.00   0.02  0.01  0.00  0.97  0.00  0.00  0.00  0.00  0.00
  YSB1171HS02004479       1.00   0.02  0.00  0.00  0.98  0.00  0.00  0.00  0.11  0.00
  HS02004881HS02006253    1.00   0.02  0.00  0.00  0.56  0.04  0.00  0.38  0.44  0.00
  YS02001793JiankangQianchi    1.00   0.00  0.00  0.00  0.64  0.36  0.00  0.00  0.14  0.00
  YS02001757CaochengTiaoxuchi    1.00   0.00  0.07  0.00  0.91  0.02  0.00  0.00  0.00  0.00
  WSF200WS02003060        1.00   0.00  0.07  0.00  0.84  0.09  0.00  0.00  0.35  0.00
  1                       1.00   0.00  0.00  0.00  0.00  1.00  0.00  0.00  0.31  0.00
  2                       1.00   0.82  0.00  0.00  0.00  0.18  0.00  0.00  0.04  0.00
  3                       1.00   0.07  0.00  0.00  0.00  0.93  0.00  0.00  0.03  0.00
  4                       1.00   1.00  0.00  0.00  0.00  0.00  0.00  0.00  0.00  0.00
  
  
  *************************
  Conduit Surcharge Summary
  *************************
  
  ----------------------------------------------------------------------------
                                                           Hours        Hours 
                         --------- Hours Full --------   Above Full   Capacity
  Conduit                Both Ends  Upstream  Dnstream   Normal Flow   Limited
  ----------------------------------------------------------------------------
  WS02006229WS02006228        1.32      1.33      1.32      3.39         1.32
  WS02006256WS02006235        5.98      5.98      7.68      4.56         0.01
  WS02006253WS02006251        0.01      0.01      0.01      0.01         0.01
  WS02006252WS02006251        0.14      0.14      0.38      0.32         0.01
  WS02006251WS02006249        0.01      0.01      0.01      0.21         0.01
  WS02006249WS02006248        0.01      0.01      0.01      2.87         0.01
  WS02006247WS02006245        0.01      0.01      0.01      3.53         0.01
  WS02006245WS02006243        0.01      0.01      0.12      0.01         0.01
  WS02006243WS02006242        0.23      0.23      0.82      0.01         0.01
  WS02006242WS02006240        0.74      0.74      0.91      0.26         0.01
  WS02006240WS02006239        0.78      0.78      0.86      0.01         0.01
  WS02006239WS02006238        0.99      0.99      1.10      0.01         0.01
  WS02006238WS02006235        1.09      1.09      1.23      0.01         0.01
  WS02006235WS02006234        0.94      0.94      1.05      5.99         0.01
  WS02006234WS02006232        1.04      1.04      1.29      0.01         0.01
  WS02006232WS02006231        0.82      0.82      1.29      0.01         0.01
  WS02006231WS02006230        0.63      0.63      0.88      6.02         0.01
  WS02006230WS02006229        1.82      3.04      1.82      6.12         1.82
  WS02006228WS02006109        1.33      1.43      1.33      4.27         1.33
  WS02006112WS02006115        0.01      0.01      1.19      0.01         0.01
  WS02006111WS02006112        0.01      0.01      3.47      0.01         0.01
  WS02006110WS02006113        0.01      0.01      1.37      0.01         0.01
  WS02006109WS02006110        1.12      1.12      1.43      1.12         0.01
  WS02004406WS02004407        0.01      0.01      0.20      0.01         0.01
  WS02004405WS02004406        0.20      0.53      0.20      1.16         0.20
  WS02004404WS02004405        0.53      0.83      0.53      6.00         0.53
  WS02004403WS02004404        0.01      0.01      0.83      0.01         0.01
  WS02003072WS02003073        0.01      0.01      0.01      4.73         0.01
  HS02004480HS02004478        0.01      0.01      0.01      0.25         0.01
  YS02001759YS02001757        5.66      5.66      5.74      0.01         0.01
  YS02001762YS02001759        5.64      5.64      5.66      0.01         0.01
  YS02001765YS02001762        5.61      5.61      5.64      0.01         0.01
  YS02001770YS02001767        5.58      5.58      5.58      0.32         0.77
  YS02001774YS02001770        5.51      5.51      5.63      0.01         0.01
  YS02001779YS02001774        5.37      5.37      5.63      0.01         0.01
  YS02001649YS02001757        5.64      5.64      5.74      0.01         0.01
  YS02001767YS02001765        5.58      5.58      5.61      0.01         0.01
  YS02006561YS02001783        0.61      0.61      1.11      0.01         0.01
  YS02001783YS02001784        1.08      1.11      1.16      1.16         0.89
  YS02001784YS02001785        1.07      1.16      1.07      2.10         1.07
  YS02001788YS02001790        1.06      1.06      2.44      0.01         0.01
  YS02001790YS02001791        2.44      2.44      2.57      0.45         0.44
  YS02001791YS02001793        2.57      2.57      2.82      0.01         0.01
  YS02001910YS02001907        0.96      0.96      1.50      0.01         0.01
  YS02001786YS02001788        1.06      1.07      1.06      1.69         1.05
  YS02001915YS02001910        0.72      0.72      0.96      0.01         0.01
  YS02001918YS02001915        0.47      0.47      0.72      0.01         0.01
  YS02001923YS02001920        0.23      0.23      0.52      0.01         0.01
  YS02001920YS02001918        0.47      0.47      0.52      0.01         0.01
  YS02001629YS02163301        5.52      5.52      5.58      0.01         0.01
  YS02001619YS02001622        5.21      5.21      5.24      0.01         0.01
  YS02001622YS02001625        5.24      5.24      5.40      0.01         0.01
  YS02001625YS02001629        5.22      5.22      5.40      0.01         0.01
  YS02163301YS02001633        5.58      5.58      5.61      0.01         0.01
  YS02163601YS02164001        5.61      5.61      5.64      0.01         0.01
  YS02164001YS02001641        5.61      5.61      5.62      0.01         0.02
  YS02001641YS02001644        5.62      5.62      5.62      1.23         1.25
  YS02001647YS02001649        5.40      5.40      5.64      0.01         0.01
  YS02006553YS02006556        1.20      1.20      1.56      0.01         0.01
  YS02006556YS02006558        1.38      1.38      1.62      0.01         0.01
  YS02001907YS02006553        2.09      2.09      2.31      0.01         0.01
  YS02006558YS02006561        0.79      1.16      0.79      1.94         0.79
  YS02001633YS02163601        5.60      5.60      5.64      0.01         0.01
  YS02001644YS02001647        5.40      5.40      5.62      0.01         0.01
  YS02001745YS02001748        0.01      0.01      5.04      0.01         0.01
  YS02001748YS02001751        5.09      5.09      5.19      0.01         0.01
  YS02001751YS02001754        5.19      5.19      5.38      0.01         0.01
  YS02001754YS02001757        5.40      5.40      5.74      0.01         0.01
  YS02001882YS02001884        0.72      0.72      0.76      0.01         0.01
  YS02001884YS02001887        0.83      0.83      0.87      0.01         0.01
  YS02001890YS02001895        0.70      0.70      0.98      0.01         0.01
  YS02001895YS02001898        0.68      0.68      0.70      0.01         0.01
  YS02001898YS02001901        0.71      0.71      0.82      0.01         0.01
  YS02001901YS02001904        0.79      0.79      0.82      0.01         0.01
  YS02001904YS02001907        0.79      0.79      1.58      0.01         0.01
  YS02001887YS02001890        0.90      0.90      0.94      0.01         0.01
  YS02001652YS02001649        5.40      5.40      5.64      0.01         0.01
  YS02001655YS02001652        5.21      5.21      5.39      0.01         0.01
  YS02001658YS02001655        5.07      5.07      5.21      0.01         0.01
  YS02001661YS02001658        0.19      0.19      5.07      0.01         0.01
  YS02001664YS02001661        0.01      0.01      1.25      0.01         0.01
  YS02001793JiankangQianchi        2.75      2.75      3.84      0.01         0.01
  YS02001757CaochengTiaoxuchi        4.90      4.90      5.74      0.01         0.01
  3                           0.01      0.01      0.01      0.01         0.01
  
  
  ***************
  Pumping Summary
  ***************
  
  ---------------------------------------------------------------------------------------------------------
                                                  Min       Avg       Max     Total     Power    % Time Off
                        Percent   Number of      Flow      Flow      Flow    Volume     Usage    Pump Curve
  Pump                 Utilized   Start-Ups       LPS       LPS       LPS  10^6 ltr     Kw-hr    Low   High
  ---------------------------------------------------------------------------------------------------------
  CC-Pump-1               58.78           5      0.00    157.39    200.00     2.501      3.59    0.0   14.0
  CC-Pump-2                8.51           2      0.00    101.39    199.98     0.240      0.66    0.0   50.0
  JK-Pump-1               76.59           6      0.00    167.61    300.00     2.669     34.03    0.0    0.0
  JK-Pump-2               97.87           2      0.00    213.04    300.00     4.527     47.11    0.0    0.0
  XR-Pump-1               51.05           7      0.00     67.07     95.00     0.969      6.64    0.0    0.0
  XR-Pump-2               61.69           7      0.00     72.48     95.00     1.283     14.41    0.0    0.0
  XR-Pump-3               97.86           4      0.00     86.44     95.00     2.308     18.77    0.0    0.0
  XR-Pump-4              100.00           2      0.00     86.37     95.00     2.394     20.25    0.0    0.0
  

  Analysis begun on:  Thu Dec 23 16:47:16 2021
  Analysis ended on:  Thu Dec 23 16:47:21 2021
  Total elapsed time: 00:00:05