
  EPA STORM WATER MANAGEMENT MODEL - VERSION 5.1 (Build 5.3.0.dev0)
  --------------------------------------------------------------

  WARNING 04: minimum elevation drop used for Conduit WS02004404WS02004405
  WARNING 03: negative offset ignored for Link YS02001904YS02001907
  
  *********************************************************
  NOTE: The summary statistics displayed in this report are
  based on results found at every computational time step,  
  not just on results from each reporting time step.
  *********************************************************
  
  ****************
  Analysis Options
  ****************
  Flow Units ............... LPS
  Process Models:
    Rainfall/Runoff ........ YES
    RDII ................... NO
    Snowmelt ............... NO
    Groundwater ............ NO
    Flow Routing ........... YES
    Ponding Allowed ........ NO
    Water Quality .......... NO
  Infiltration Method ...... HORTON
  Flow Routing Method ...... DYNWAVE
  Surcharge Method ......... EXTRAN
  Starting Date ............ 08/28/2015 08:00:00
  Ending Date .............. 08/28/2015 15:50:00
  Antecedent Dry Days ...... 8.0
  Report Time Step ......... 00:01:00
  Wet Time Step ............ 00:01:00
  Dry Time Step ............ 00:01:00
  Routing Time Step ........ 5.00 sec
  Variable Time Step ....... YES
  Maximum Trials ........... 8
  Number of Threads ........ 4
  Head Tolerance ........... 0.001500 m
  
  
  **************************        Volume         Depth
  Runoff Quantity Continuity     hectare-m            mm
  **************************     ---------       -------
  Total Precipitation ......         5.556        12.164
  Evaporation Loss .........         0.000         0.000
  Infiltration Loss ........         1.427         3.124
  Surface Runoff ...........         3.072         6.726
  Final Storage ............         1.058         2.316
  Continuity Error (%) .....        -0.016
  
  
  **************************        Volume        Volume
  Flow Routing Continuity        hectare-m      10^6 ltr
  **************************     ---------     ---------
  Dry Weather Inflow .......         0.616         6.165
  Wet Weather Inflow .......         3.071        30.709
  Groundwater Inflow .......         0.000         0.000
  RDII Inflow ..............         0.000         0.000
  External Inflow ..........         0.102         1.024
  External Outflow .........         2.106        21.064
  Flooding Loss ............         1.236        12.363
  Evaporation Loss .........         0.000         0.000
  Exfiltration Loss ........         0.000         0.000
  Initial Stored Volume ....         0.076         0.761
  Final Stored Volume ......         0.644         6.439
  Continuity Error (%) .....        -3.125
  
  
  *************************
  Highest Continuity Errors
  *************************
  Node HS02004842 (16.24%)
  Node JK-storage (-13.72%)
  Node YS02001884 (11.14%)
  Node YSB1171 (3.12%)
  Node HS02004817 (2.99%)
  
  
  ***************************
  Time-Step Critical Elements
  ***************************
  Link 3 (64.13%)
  Link WS02006252WS02006251 (29.52%)
  Link WS02006280WS02006229 (1.39%)
  
  
  ********************************
  Highest Flow Instability Indexes
  ********************************
  Link YS02163601YS02164001 (40)
  Link YS02163301YS02001633 (40)
  Link YS02001629YS02163301 (39)
  Link WS02006113WS02006111 (39)
  Link YS02001619YS02001622 (39)
  
  
  *************************
  Routing Time Step Summary
  *************************
  Minimum Time Step           :     0.50 sec
  Average Time Step           :     0.80 sec
  Maximum Time Step           :     5.00 sec
  Percent in Steady State     :    -0.00
  Average Iterations per Step :     4.46
  Percent Not Converging      :    19.57
  
  
  ***************************
  Subcatchment Runoff Summary
  ***************************
  
  ------------------------------------------------------------------------------------------------------------------------------
                            Total      Total      Total      Total     Imperv       Perv      Total       Total     Peak  Runoff
                           Precip      Runon       Evap      Infil     Runoff     Runoff     Runoff      Runoff   Runoff   Coeff
  Subcatchment                 mm         mm         mm         mm         mm         mm         mm    10^6 ltr      LPS
  ------------------------------------------------------------------------------------------------------------------------------
  sub0                      12.16       0.00       0.00       0.85      10.05       0.00      10.05        0.01     1.91   0.826
  sub1                      12.16       0.00       0.00       1.34       9.56       0.00       9.56        0.06    14.15   0.786
  sub2                      12.16       0.00       0.00       4.50       6.75       0.00       6.75        0.06    13.75   0.555
  sub3                      12.16       0.00       0.00       4.50       6.71       0.00       6.71        0.15    32.07   0.552
  sub4                      12.16       0.00       0.00       1.34       9.40       0.00       9.40        0.20    40.20   0.773
  sub5                      12.16       0.00       0.00       0.85       9.99       0.00       9.99        0.11    25.19   0.822
  sub7                      12.16       0.00       0.00       1.09       9.81       0.00       9.81        0.03     7.55   0.807
  sub8                      12.16       0.00       0.00       1.09       9.80       0.00       9.80        0.06    14.17   0.806
  sub9                      12.16       0.00       0.00       1.09       9.80       0.00       9.80        0.05    10.64   0.806
  sub10                     12.16       0.00       0.00       0.97       9.89       0.00       9.89        0.11    24.40   0.813
  sub11                     12.16       0.00       0.00       0.97       9.91       0.00       9.91        0.12    26.15   0.815
  sub12                     12.16       0.00       0.00       1.58       9.39       0.00       9.39        0.08    19.06   0.772
  sub14                     12.16       0.00       0.00       1.09       9.80       0.00       9.80        0.09    21.02   0.805
  sub15                     12.16       0.00       0.00       3.65       7.53       0.00       7.53        0.13    29.11   0.619
  sub16                     12.16       0.00       0.00       4.01       7.23       0.00       7.23        0.08    17.47   0.594
  sub17                     12.16       0.00       0.00       3.89       7.34       0.00       7.34        0.06    14.47   0.603
  sub22                     12.16       0.00       0.00       5.23       6.14       0.00       6.14        0.39    88.27   0.505
  sub23                     12.16       0.00       0.00       4.50       6.79       0.00       6.79        0.32    73.89   0.558
  sub60                     12.16       0.00       0.00       1.46       7.71       0.00       7.71        2.34   297.17   0.634
  sub61                     12.16       0.00       0.00       2.07       7.87       0.00       7.87        2.43   359.80   0.647
  sub62                     12.16       0.00       0.00       0.97       8.55       0.00       8.55        2.63   372.87   0.703
  sub63                     12.16       0.00       0.00       3.53       6.89       0.00       6.89        2.09   327.80   0.567
  sub64                     12.16       0.00       0.00       1.82       7.40       0.00       7.40        2.25   282.66   0.608
  sub65                     12.16       0.00       0.00       1.58       7.52       0.00       7.52        2.31   287.20   0.618
  sub66                     12.16       0.00       0.00       3.53       6.36       0.00       6.36        1.95   257.27   0.523
  sub67                     12.16       0.00       0.00       0.97       9.05       0.00       9.05        2.79   452.90   0.744
  sub68                     12.16       0.00       0.00       1.70       8.28       0.00       8.28        2.55   391.99   0.681
  sub69                     12.16       0.00       0.00       1.82       8.61       0.00       8.61        2.01   355.79   0.708
  sub70                     12.16       8.79       0.00       7.03      11.43       0.10      11.53        2.64   335.00   0.550
  sub71                     12.16       0.00       0.00       0.97       8.31       0.00       8.31        1.96   263.63   0.683
  sub72                     12.16       0.00       0.00       0.85       6.56       0.00       6.56        1.34   129.40   0.540
  sub73                     12.16      11.23       0.00       7.88      12.47       0.08      12.54        2.95   300.52   0.536
  sub74                     12.16       0.00       0.00       9.12       2.57       0.00       2.57        1.03   189.59   0.211
  
  
  ******************
  Node Depth Summary
  ******************
  
  ---------------------------------------------------------------------------------
                                 Average  Maximum  Maximum  Time of Max    Reported
                                   Depth    Depth      HGL   Occurrence   Max Depth
  Node                 Type       Meters   Meters   Meters  days hr:min      Meters
  ---------------------------------------------------------------------------------
  WS02001211           JUNCTION     0.68     0.74     5.58     0  07:21        0.74
  WS02001212           JUNCTION     0.40     0.47     5.53     0  03:00        0.47
  WS02001213           JUNCTION     0.63     0.73     5.49     0  03:01        0.73
  WS02003069           JUNCTION     0.45     0.59     5.18     0  03:02        0.59
  WS02003072           JUNCTION     0.52     0.65     5.02     0  03:03        0.65
  WS02003073           JUNCTION     0.31     0.40     4.46     0  03:03        0.40
  WS02003060           JUNCTION     0.40     0.52     5.45     0  03:01        0.52
  WS02003066           JUNCTION     0.24     0.33     5.88     0  03:05        0.33
  WS02003059           JUNCTION     0.69     0.79     5.48     0  03:01        0.79
  WS02003067           JUNCTION     0.58     0.74     6.06     0  03:05        0.74
  WS02004401           JUNCTION     0.69     0.97     6.97     0  03:03        0.97
  WS02004402           JUNCTION     0.72     0.99     6.95     0  03:03        0.99
  WS02004403           JUNCTION     0.74     0.99     6.92     0  03:03        0.99
  WS02004404           JUNCTION     0.81     1.06     6.91     0  03:03        1.05
  WS02004406           JUNCTION     0.82     1.03     6.86     0  03:03        1.03
  WS02004409           JUNCTION     0.50     0.75     6.52     0  03:03        0.75
  WS02004410           JUNCTION     0.52     0.76     6.48     0  03:04        0.76
  WS02004411           JUNCTION     0.54     0.76     6.44     0  03:04        0.76
  WS02004412           JUNCTION     0.55     0.76     6.40     0  03:04        0.76
  WS02004413           JUNCTION     0.71     0.91     6.38     0  03:04        0.91
  WS02004405           JUNCTION     0.81     1.04     6.89     0  03:03        1.04
  WS02006109           JUNCTION     0.77     1.11     7.72     0  03:02        1.09
  WS02006110           JUNCTION     0.76     1.02     7.60     0  03:02        1.01
  WS02006111           JUNCTION     0.22     0.35     7.06     0  03:02        0.34
  WS02006112           JUNCTION     0.86     1.19     7.08     0  03:08        1.18
  WS02006113           JUNCTION     0.35     0.51     7.40     0  03:01        0.51
  WS02006115           JUNCTION     0.58     0.88     7.02     0  03:03        0.88
  WS02006116           JUNCTION     0.66     0.96     7.00     0  03:02        0.96
  WS02006230           JUNCTION     0.74     1.16     7.91     0  03:02        1.16
  WS02006231           JUNCTION     0.50     0.81     7.94     0  03:02        0.81
  WS02006232           JUNCTION     0.63     0.93     7.97     0  03:01        0.93
  WS02006234           JUNCTION     0.54     0.84     8.00     0  03:02        0.84
  WS02006235           JUNCTION     0.57     0.86     8.03     0  03:02        0.86
  WS02006238           JUNCTION     0.59     0.89     8.03     0  03:01        0.88
  WS02006240           JUNCTION     0.48     0.77     8.07     0  03:01        0.77
  WS02006242           JUNCTION     0.52     0.82     8.09     0  03:01        0.82
  WS02006243           JUNCTION     0.39     0.70     8.12     0  03:01        0.70
  WS02006245           JUNCTION     0.36     0.65     8.13     0  03:00        0.65
  WS02006247           JUNCTION     0.37     0.65     8.15     0  03:00        0.65
  WS02006248           JUNCTION     0.32     0.57     8.16     0  03:00        0.57
  WS02006249           JUNCTION     0.35     0.58     8.17     0  03:00        0.58
  WS02006239           JUNCTION     0.54     0.84     8.05     0  03:02        0.84
  WS02006251           JUNCTION     0.33     0.59     8.26     0  07:20        0.59
  WS02006252           JUNCTION     0.27     0.59     8.83     0  07:19        0.58
  WS02006253           JUNCTION     0.36     0.62     8.27     0  07:20        0.62
  WS02006256           JUNCTION     1.10     2.35     9.28     0  00:00        1.21
  WS02004138           JUNCTION     0.16     0.19     7.44     0  07:20        0.19
  WS02004407           JUNCTION     0.23     0.33     6.64     0  03:03        0.33
  WS02006228           JUNCTION     0.77     1.17     7.82     0  03:02        1.16
  WS02006229           JUNCTION     0.75     1.18     7.87     0  03:02        1.17
  WS02006280           JUNCTION     0.08     0.19     8.46     0  03:02        0.19
  WS02006284           JUNCTION     0.38     0.55     8.95     0  03:02        0.55
  WS02006287           JUNCTION     0.11     0.28     9.24     0  03:01        0.28
  WSF200               JUNCTION     0.22     0.35     5.59     0  03:05        0.35
  HS02004901           JUNCTION     0.14     0.28    10.10     0  03:01        0.28
  HS02004881           JUNCTION     0.01     0.04     9.07     0  03:01        0.04
  HS02004876           JUNCTION     0.05     0.12     9.15     0  03:01        0.12
  HS02004870           JUNCTION     0.02     0.06     9.35     0  03:01        0.06
  HS02004862           JUNCTION     0.02     0.07     9.46     0  03:01        0.07
  HS02004856           JUNCTION     0.08     0.13     9.55     0  03:01        0.13
  HS02004852           JUNCTION     0.01     0.05     9.56     0  03:01        0.05
  HS02004848           JUNCTION     0.01     0.05     9.65     0  03:01        0.05
  HS02004842           JUNCTION     0.34     0.38     9.65     0  03:01        0.38
  HS02004837           JUNCTION     0.03     0.07     9.65     0  03:01        0.07
  HS02004830           JUNCTION     0.04     0.08     9.55     0  03:01        0.08
  HS02004824           JUNCTION     0.03     0.06     9.46     0  03:01        0.06
  HS02004817           JUNCTION     0.45     0.60     9.44     0  03:01        0.60
  HS02004807           JUNCTION     0.14     0.27     9.44     0  03:01        0.27
  HS02004802           JUNCTION     0.17     0.30     9.43     0  03:01        0.30
  HS02004799           JUNCTION     0.13     0.33     9.54     0  03:01        0.33
  HS02004792           JUNCTION     0.04     0.14     9.66     0  03:01        0.14
  HS02004788           JUNCTION     0.03     0.10    10.00     0  03:01        0.10
  HS02004785           JUNCTION     0.06     0.17    10.07     0  03:01        0.17
  HS02004777           JUNCTION     0.16     0.30    10.10     0  03:01        0.30
  HS02004770           JUNCTION     0.13     0.27    10.10     0  03:01        0.27
  HS02004480           JUNCTION     0.09     0.26     9.50     0  03:01        0.26
  HS02004479           JUNCTION     0.13     0.30     9.50     0  03:01        0.30
  HS02004478           JUNCTION     0.07     0.18     9.41     0  03:01        0.18
  YS02001745           JUNCTION     0.68     0.89     8.41     0  03:24        0.89
  YS02001748           JUNCTION     1.07     2.27     9.35     0  02:43        1.33
  YS02001751           JUNCTION     1.25     1.91     8.79     0  02:43        1.54
  YS02001754           JUNCTION     1.51     2.05     8.66     0  02:43        1.81
  YS02001762           JUNCTION     1.71     2.03     8.43     0  03:25        2.02
  YS02001765           JUNCTION     1.66     1.98     8.43     0  03:25        1.97
  YS02001767           JUNCTION     1.62     1.94     8.43     0  03:29        1.92
  YS02001770           JUNCTION     1.62     1.91     8.41     0  03:32        1.90
  YS02001774           JUNCTION     1.69     1.98     8.40     0  03:31        1.97
  YS02001779           JUNCTION     1.43     1.68     8.37     0  02:43        1.68
  YS02001882           JUNCTION     0.53     1.70     8.42     0  02:56        1.60
  YS02001884           JUNCTION     0.63     1.79     8.40     0  02:56        1.70
  YS02001759           JUNCTION     1.74     2.07     8.43     0  03:29        2.06
  YS02001887           JUNCTION     0.70     1.83     8.37     0  02:56        1.78
  YS02001890           JUNCTION     0.73     1.81     8.32     0  02:56        1.80
  YS02001898           JUNCTION     0.50     1.57     8.31     0  02:58        1.55
  YS02001901           JUNCTION     0.62     1.69     8.30     0  02:56        1.67
  YS02001904           JUNCTION     0.60     1.64     8.27     0  02:56        1.63
  YS02001907           JUNCTION     0.93     1.96     8.25     0  02:56        1.96
  YS02001910           JUNCTION     0.72     1.80     8.31     0  02:58        1.79
  YS02001915           JUNCTION     0.51     1.63     8.35     0  02:59        1.60
  YS02001918           JUNCTION     0.26     1.35     8.41     0  02:58        1.31
  YS02001619           JUNCTION     1.22     1.61     8.54     0  02:34        1.47
  YS02001629           JUNCTION     1.57     1.85     8.40     0  02:44        1.84
  YS02001641           JUNCTION     1.67     1.94     8.38     0  02:50        1.93
  YS02001644           JUNCTION     1.68     1.92     8.35     0  02:45        1.92
  YS02001652           JUNCTION     1.52     2.16     8.76     0  02:55        1.91
  YS02001655           JUNCTION     1.28     2.20     9.05     0  03:10        1.75
  YS02001920           JUNCTION     0.35     1.44     8.45     0  02:58        1.40
  YS02001923           JUNCTION     0.19     1.22     8.48     0  02:58        1.18
  YS02001926           JUNCTION     0.25     1.20     8.65     0  02:59        1.14
  YS02001929           JUNCTION     0.14     0.82     8.51     0  02:59        0.69
  YS02001658           JUNCTION     1.01     2.30     9.44     0  02:56        1.53
  YS02001661           JUNCTION     0.79     2.46     9.86     0  02:56        1.64
  YS02001664           JUNCTION     0.35     0.57     8.49     0  02:54        0.56
  YS02001622           JUNCTION     1.24     1.62     8.52     0  02:34        1.49
  YS02001633           JUNCTION     1.67     1.95     8.40     0  02:44        1.94
  YS02001649           JUNCTION     1.72     2.05     8.44     0  02:54        2.05
  YS02001757           JUNCTION     1.84     2.18     8.44     0  03:27        2.16
  YS02001895           JUNCTION     0.49     1.57     8.32     0  02:56        1.55
  YS02001625           JUNCTION     1.53     1.78     8.38     0  02:40        1.78
  YS02163301           JUNCTION     1.60     1.89     8.40     0  02:44        1.87
  YS02163601           JUNCTION     1.72     2.00     8.39     0  02:50        1.98
  YS02164001           JUNCTION     1.65     1.92     8.38     0  02:49        1.91
  YS02001647           JUNCTION     1.50     1.80     8.41     0  03:00        1.79
  YSB1154              JUNCTION     0.27     0.45     9.51     0  03:01        0.45
  YSB6556              JUNCTION     0.16     0.34     9.51     0  03:01        0.34
  YSB1174              JUNCTION     0.22     0.40     9.51     0  03:01        0.40
  YSB1171              JUNCTION     0.42     0.60     9.51     0  03:01        0.60
  YS02006553           JUNCTION     0.93     2.13     8.41     0  02:56        1.96
  YS02006561           JUNCTION     0.30     1.95     8.61     0  02:56        1.09
  YS02006556           JUNCTION     0.90     2.29     8.60     0  02:56        1.91
  YS02006558           JUNCTION     0.94     2.38     8.65     0  02:56        1.95
  YS02001783           JUNCTION     0.52     2.13     8.27     0  02:56        1.48
  YS02001784           JUNCTION     0.54     2.17     8.23     0  02:55        1.42
  YS02001786           JUNCTION     0.48     2.23     8.26     0  02:55        1.27
  YS02001788           JUNCTION     0.41     2.28     8.26     0  02:55        1.14
  YS02001790           JUNCTION     0.52     1.96     7.60     0  02:55        1.29
  YS02001791           JUNCTION     0.47     1.83     7.30     0  02:55        1.28
  YS02001793           JUNCTION     0.63     1.93     6.76     0  02:56        1.80
  WS02004139           JUNCTION     0.62     0.69     5.60     0  07:20        0.69
  WSC                  OUTFALL      0.31     0.40     1.07     0  03:04        0.40
  3                    OUTFALL      0.13     0.23     6.23     0  00:00        0.21
  4                    OUTFALL      0.01     0.08     7.08     0  03:00        0.08
  5                    OUTFALL      0.00     0.00     5.00     0  00:00        0.00
  JK-storage           STORAGE      2.58     5.80     6.60     0  02:56        5.80
  CC-storage           STORAGE      1.05     1.40     8.40     0  03:22        1.40
  XR-storage           STORAGE      6.64     7.72     5.72     0  02:59        7.72
  
  
  *******************
  Node Inflow Summary
  *******************
  
  -------------------------------------------------------------------------------------------------
                                  Maximum  Maximum                  Lateral       Total        Flow
                                  Lateral    Total  Time of Max      Inflow      Inflow     Balance
                                   Inflow   Inflow   Occurrence      Volume      Volume       Error
  Node                 Type           LPS      LPS  days hr:min    10^6 ltr    10^6 ltr     Percent
  -------------------------------------------------------------------------------------------------
  WS02001211           JUNCTION      7.35   375.86     0  07:20       0.207        7.33       0.397
  WS02001212           JUNCTION      0.00   368.27     0  07:21           0         7.3       0.243
  WS02001213           JUNCTION      0.00   365.21     0  07:21           0        7.29       0.256
  WS02003069           JUNCTION      0.32   960.41     0  03:02     0.00902        15.4       0.153
  WS02003072           JUNCTION      0.00   960.37     0  03:02           0        15.3       0.200
  WS02003073           JUNCTION      1.82   962.21     0  03:03      0.0514        15.4       0.222
  WS02003060           JUNCTION     16.53   960.15     0  03:01       0.466        15.4       0.146
  WS02003066           JUNCTION      0.00   659.59     0  03:05           0        7.67       0.047
  WS02003059           JUNCTION      0.00   359.81     0  07:22           0        7.27       0.439
  WS02003067           JUNCTION      0.00   659.35     0  03:05           0        7.68       0.102
  WS02004401           JUNCTION      0.00   664.34     0  03:02           0        7.87       0.220
  WS02004402           JUNCTION      0.00   662.65     0  03:03           0        7.86       0.213
  WS02004403           JUNCTION      0.00   661.10     0  03:03           0        7.84       0.197
  WS02004404           JUNCTION      0.16   660.91     0  03:03     0.00457        7.83       0.152
  WS02004406           JUNCTION      0.00   661.12     0  03:03           0         7.8       0.373
  WS02004409           JUNCTION      0.00   660.96     0  03:03           0        7.76       0.154
  WS02004410           JUNCTION      0.00   660.49     0  03:03           0        7.75       0.182
  WS02004411           JUNCTION      0.00   659.99     0  03:04           0        7.74       0.192
  WS02004412           JUNCTION      0.00   659.82     0  03:04           0        7.72       0.216
  WS02004413           JUNCTION      0.00   659.55     0  03:04           0        7.71       0.332
  WS02004405           JUNCTION      0.04   661.01     0  03:03     0.00107        7.82       0.231
  WS02006109           JUNCTION      1.23   652.37     0  03:02      0.0347        7.91       0.235
  WS02006110           JUNCTION      0.00   652.46     0  03:02           0        7.89       0.199
  WS02006111           JUNCTION      0.00   684.13     0  03:02           0        7.87       0.037
  WS02006112           JUNCTION     14.47   666.95     0  03:02      0.0629        7.93       0.293
  WS02006113           JUNCTION      0.00   653.83     0  03:02           0        7.87       0.081
  WS02006115           JUNCTION      0.00   666.85     0  03:02           0         7.9       0.191
  WS02006116           JUNCTION      0.00   666.47     0  03:02           0        7.89       0.191
  WS02006230           JUNCTION     10.28   389.50     0  07:23        0.29        6.02       0.173
  WS02006231           JUNCTION      0.00   380.84     0  07:22           0        5.73       0.130
  WS02006232           JUNCTION      0.00   380.97     0  07:22           0        5.75       0.220
  WS02006234           JUNCTION      0.00   381.90     0  07:22           0        5.75       0.071
  WS02006235           JUNCTION      0.00   383.14     0  07:21           0        5.78       0.145
  WS02006238           JUNCTION      0.00   305.95     0  07:22           0        3.36       0.145
  WS02006240           JUNCTION      0.00   314.36     0  07:21           0        3.35       0.159
  WS02006242           JUNCTION      0.00   318.84     0  07:21           0        3.34       0.178
  WS02006243           JUNCTION      0.00   325.59     0  07:20           0        3.33      -0.208
  WS02006245           JUNCTION      0.00   328.87     0  07:20           0        3.34       0.126
  WS02006247           JUNCTION      0.00   332.56     0  07:20           0        3.34       0.002
  WS02006248           JUNCTION      0.00   337.15     0  07:20           0        3.33      -0.055
  WS02006249           JUNCTION      0.00   390.48     0  07:20           0        3.47       0.090
  WS02006239           JUNCTION      0.00   308.80     0  07:21           0        3.35       0.187
  WS02006251           JUNCTION      0.08   400.06     0  07:20     0.00217        3.48      -0.006
  WS02006252           JUNCTION      0.00   399.92     0  07:20           0         3.1       0.002
  WS02006253           JUNCTION      1.91    81.00     0  03:01     0.00814       0.372       0.014
  WS02006256           JUNCTION      0.00   600.00     0  00:00           0        8.06       0.029
  WS02004138           JUNCTION      0.00   379.92     0  07:20           0        7.15       0.062
  WS02004407           JUNCTION      0.00   661.42     0  03:03           0        7.77       0.068
  WS02006228           JUNCTION      0.00   651.27     0  03:02           0        7.88       0.158
  WS02006229           JUNCTION      0.00   649.21     0  03:02           0        7.89       0.117
  WS02006280           JUNCTION      0.00   375.54     0  03:02           0        1.89       0.004
  WS02006284           JUNCTION      0.10   375.54     0  03:02      0.0027        1.89       0.064
  WS02006287           JUNCTION      0.00   375.27     0  03:01           0        1.89       0.037
  WSF200               JUNCTION      0.00   659.73     0  03:05           0        7.67       0.043
  HS02004901           JUNCTION     17.47    17.47     0  03:01      0.0757      0.0759       2.380
  HS02004881           JUNCTION      7.55    79.19     0  03:01      0.0331       0.357       0.048
  HS02004876           JUNCTION     14.15    72.10     0  03:01      0.0636       0.324       0.171
  HS02004870           JUNCTION     14.17    58.27     0  03:01      0.0626       0.261       0.043
  HS02004862           JUNCTION     13.95    44.46     0  03:01      0.0685       0.198       0.089
  HS02004856           JUNCTION     10.64    30.79     0  03:01      0.0471       0.131       1.115
  HS02004852           JUNCTION      0.00    20.44     0  03:01           0       0.084       0.069
  HS02004848           JUNCTION     32.07    32.07     0  03:01       0.151       0.151       0.033
  HS02004842           JUNCTION      0.00    11.42     0  03:01           0      0.0801      19.387
  HS02004837           JUNCTION     30.75    41.91     0  03:01       0.288       0.355       0.230
  HS02004830           JUNCTION      0.15    41.84     0  03:01     0.00423       0.346       0.358
  HS02004824           JUNCTION     40.25    81.79     0  03:01       0.197       0.542       0.100
  HS02004817           JUNCTION      0.60    82.18     0  03:01      0.0169       0.558       3.079
  HS02004807           JUNCTION     26.15   107.24     0  03:01       0.115       0.657       0.656
  HS02004802           JUNCTION      0.00   106.49     0  03:01           0       0.653       0.620
  HS02004799           JUNCTION     21.02   227.51     0  03:01      0.0932        1.06       0.236
  HS02004792           JUNCTION     88.55   207.33     0  03:01       0.396       0.966       0.043
  HS02004788           JUNCTION     30.78   119.37     0  03:01       0.177       0.571       0.068
  HS02004785           JUNCTION      0.15    89.79     0  03:01     0.00423       0.396       0.125
  HS02004777           JUNCTION      0.03    90.24     0  03:01    0.000846       0.397       1.326
  HS02004770           JUNCTION     73.89    90.93     0  03:01       0.324       0.398       0.787
  HS02004480           JUNCTION      0.00   269.27     0  03:01           0        1.25       0.099
  HS02004479           JUNCTION      0.00    42.82     0  03:02           0       0.204       0.361
  HS02004478           JUNCTION      0.00   375.17     0  03:01           0        1.89       0.018
  YS02001745           JUNCTION    297.18   297.52     0  02:42        2.34        2.34       0.487
  YS02001748           JUNCTION      0.04   508.78     0  02:43     0.00127        2.33       1.004
  YS02001751           JUNCTION      0.01   306.84     0  03:01     0.00031         2.3       1.037
  YS02001754           JUNCTION      0.26   307.17     0  03:01     0.00733        2.29       1.093
  YS02001762           JUNCTION      0.00   334.86     0  02:54           0        1.86       1.139
  YS02001765           JUNCTION      0.00   334.93     0  02:54           0        1.86       1.314
  YS02001767           JUNCTION      0.54   334.76     0  02:54      0.0151        1.88       1.925
  YS02001770           JUNCTION    373.02   413.79     0  03:26        2.63        2.78       1.147
  YS02001774           JUNCTION      0.00   414.36     0  03:26           0        1.03       2.486
  YS02001779           JUNCTION      0.01   414.52     0  03:26    0.000141           1       1.567
  YS02001882           JUNCTION      0.00    15.00     0  02:52           0       0.019      12.988
  YS02001884           JUNCTION      0.00    24.16     0  02:30           0      0.0548      12.542
  YS02001759           JUNCTION    359.84   661.14     0  02:55        2.43        4.11       0.560
  YS02001887           JUNCTION    453.35   453.51     0  03:01         2.8        2.83       0.303
  YS02001890           JUNCTION      0.00   453.42     0  03:01           0        2.79       0.330
  YS02001898           JUNCTION      0.00   453.56     0  03:01           0        2.77       0.114
  YS02001901           JUNCTION      0.00   453.41     0  03:01           0        2.77       0.248
  YS02001904           JUNCTION      0.00   453.53     0  03:01           0        2.77       0.224
  YS02001907           JUNCTION      0.00  1010.43     0  02:59           0        6.12       0.387
  YS02001910           JUNCTION      0.00   565.41     0  02:59           0        3.37       0.348
  YS02001915           JUNCTION    263.65   565.36     0  02:59        1.96        3.39       0.178
  YS02001918           JUNCTION      0.00   305.81     0  02:59           0        1.45       0.129
  YS02001619           JUNCTION    257.27   257.27     0  03:01        1.95        1.95       0.634
  YS02001629           JUNCTION      0.00   206.67     0  02:50           0        1.63       1.799
  YS02001641           JUNCTION      0.00   438.33     0  02:50           0        3.84       0.548
  YS02001644           JUNCTION    282.70  1124.03     0  03:24        2.25        8.66       0.303
  YS02001652           JUNCTION      0.00   373.47     0  03:01           0        2.04       1.151
  YS02001655           JUNCTION      0.15   373.85     0  03:01     0.00434        2.06       1.249
  YS02001920           JUNCTION      2.87   305.89     0  02:59      0.0809        1.45       0.201
  YS02001923           JUNCTION      0.04   320.62     0  02:59     0.00106        1.36       0.032
  YS02001926           JUNCTION      0.05   273.22     0  03:00     0.00147        1.34       0.248
  YS02001929           JUNCTION    129.40   169.21     0  02:58        1.34        1.34       0.041
  YS02001658           JUNCTION      0.00   420.00     0  02:42           0        2.08       1.139
  YS02001661           JUNCTION      0.00   690.36     0  02:54           0         2.8      -0.113
  YS02001664           JUNCTION    327.80   356.94     0  02:53        2.09        2.81       0.250
  YS02001622           JUNCTION      0.00   257.43     0  03:01           0        1.94       1.667
  YS02001633           JUNCTION    287.40   437.90     0  02:50        2.32         3.9       0.830
  YS02001649           JUNCTION      0.00   934.45     0  02:50           0        5.04       0.741
  YS02001757           JUNCTION      0.00  1774.42     0  02:51           0        8.65       1.078
  YS02001895           JUNCTION      0.00   453.49     0  03:01           0        2.78       0.176
  YS02001625           JUNCTION      0.00   257.39     0  03:01           0         1.9       2.049
  YS02163301           JUNCTION      0.00   206.97     0  02:49           0        1.61       1.506
  YS02163601           JUNCTION      0.11   437.82     0  02:50      0.0031        3.87       0.783
  YS02164001           JUNCTION      0.00   437.75     0  02:50           0        3.85       0.523
  YS02001647           JUNCTION      0.00   667.00     0  02:50           0        4.14       0.686
  YSB1154              JUNCTION     25.19    25.19     0  03:01       0.113       0.114       1.286
  YSB6556              JUNCTION      0.00    24.91     0  03:01           0       0.115       1.100
  YSB1174              JUNCTION     19.06    19.06     0  03:01      0.0821      0.0827       1.581
  YSB1171              JUNCTION      0.00    43.19     0  03:01           0       0.203       3.219
  YS02006553           JUNCTION      0.00   691.43     0  02:55           0        5.95       0.258
  YS02006561           JUNCTION      0.00  1051.30     0  02:55           0        8.47       0.006
  YS02006556           JUNCTION      0.00   691.10     0  02:55           0        5.96       0.187
  YS02006558           JUNCTION    392.87  1051.43     0  02:55        2.57         8.5       0.065
  YS02001783           JUNCTION      0.00  1035.44     0  02:55           0        8.47       0.028
  YS02001784           JUNCTION      1.06  1036.54     0  02:55      0.0299         8.5       0.045
  YS02001786           JUNCTION      0.06  1036.14     0  02:55     0.00159         8.5       0.041
  YS02001788           JUNCTION      0.07  1024.40     0  02:55       0.002        8.49       0.022
  YS02001790           JUNCTION      0.15  1016.75     0  02:54     0.00437         8.5       0.032
  YS02001791           JUNCTION      0.00  1071.75     0  02:54           0        8.49       0.010
  YS02001793           JUNCTION      0.00   994.10     0  02:53           0        8.51       0.008
  WS02004139           JUNCTION      0.32   379.02     0  07:20     0.00905        7.16       0.456
  WSC                  OUTFALL       0.00   962.13     0  03:04           0        15.3       0.000
  3                    OUTFALL       0.00   597.65     0  00:00           0        5.61       0.000
  4                    OUTFALL       0.00    60.02     0  03:00           0       0.131       0.000
  5                    OUTFALL       0.00     0.00     0  00:00           0           0       0.000 ltr
  JK-storage           STORAGE       0.00   968.63     0  02:52           0        8.66     -12.065
  CC-storage           STORAGE       0.00  1774.32     0  02:51           0        7.04       0.935
  XR-storage           STORAGE     690.11   690.11     0  03:01        9.61        10.2      -0.001
  
  
  **********************
  Node Surcharge Summary
  **********************
  
  Surcharging occurs when water rises above the top of the highest conduit.
  ---------------------------------------------------------------------
                                               Max. Height   Min. Depth
                                   Hours       Above Crown    Below Rim
  Node                 Type      Surcharged         Meters       Meters
  ---------------------------------------------------------------------
  WS02004404           JUNCTION        0.74          0.056        2.724
  WS02004406           JUNCTION        0.43          0.028        2.422
  WS02004405           JUNCTION        0.59          0.043        2.757
  WS02006109           JUNCTION        1.31          0.286        1.534
  WS02006110           JUNCTION        1.06          0.106        1.744
  WS02006112           JUNCTION        1.13          0.192        1.488
  WS02006230           JUNCTION        0.66          0.081        1.489
  WS02006231           JUNCTION        0.88          0.105        1.425
  WS02006232           JUNCTION        1.25          0.235        1.245
  WS02006234           JUNCTION        0.98          0.122        1.118
  WS02006235           JUNCTION        1.04          0.155        1.135
  WS02006238           JUNCTION        1.11          0.170        1.260
  WS02006240           JUNCTION        0.86          0.063        1.327
  WS02006242           JUNCTION        0.92          0.092        0.728
  WS02006239           JUNCTION        0.94          0.098        1.192
  WS02006252           JUNCTION        0.19          0.187        0.913
  WS02006256           JUNCTION        0.01          1.050        0.000
  WS02006228           JUNCTION        1.27          0.336        1.864
  YS02001748           JUNCTION        5.05          1.190        0.000
  YS02001751           JUNCTION        5.23          0.910        0.290
  YS02001754           JUNCTION        5.40          1.002        0.148
  YS02001762           JUNCTION        5.64          1.033        0.117
  YS02001765           JUNCTION        5.61          0.979        0.121
  YS02001767           JUNCTION        5.58          0.937        0.093
  YS02001770           JUNCTION        5.56          0.882        0.038
  YS02001774           JUNCTION        5.63          0.979        0.071
  YS02001779           JUNCTION        5.39          0.680        0.000
  YS02001882           JUNCTION        0.72          0.703        0.127
  YS02001884           JUNCTION        0.76          0.726        0.144
  YS02001759           JUNCTION        5.66          1.069        0.141
  YS02001887           JUNCTION        0.87          0.781        0.169
  YS02001890           JUNCTION        0.90          0.760        0.000
  YS02001898           JUNCTION        0.66          0.541        0.199
  YS02001901           JUNCTION        0.82          0.687        0.183
  YS02001904           JUNCTION        0.79          0.644        0.206
  YS02001907           JUNCTION        1.48          0.950        0.000
  YS02001910           JUNCTION        0.96          0.798        0.302
  YS02001915           JUNCTION        0.69          0.630        0.370
  YS02001918           JUNCTION        0.42          0.346        0.464
  YS02001619           JUNCTION        5.24          0.610        0.000
  YS02001629           JUNCTION        5.24          0.470        0.000
  YS02001641           JUNCTION        5.62          0.938        0.162
  YS02001644           JUNCTION        5.62          0.920        0.000
  YS02001652           JUNCTION        5.41          1.130        0.000
  YS02001655           JUNCTION        5.26          1.200        0.000
  YS02001920           JUNCTION        0.46          0.439        0.701
  YS02001923           JUNCTION        0.01          0.006        0.814
  YS02001926           JUNCTION        0.01          0.200        0.700
  YS02001658           JUNCTION        5.08          1.300        0.000
  YS02001661           JUNCTION        0.23          1.390        0.000
  YS02001622           JUNCTION        5.25          0.620        0.000
  YS02001633           JUNCTION        5.60          0.926        0.134
  YS02001649           JUNCTION        5.64          1.050        0.000
  YS02001757           JUNCTION        5.74          1.178        0.032
  YS02001895           JUNCTION        0.68          0.570        0.180
  YS02001625           JUNCTION        5.43          0.780        0.000
  YS02163301           JUNCTION        5.57          0.887        0.143
  YS02163601           JUNCTION        5.64          0.996        0.084
  YS02164001           JUNCTION        5.61          0.920        0.180
  YS02001647           JUNCTION        5.42          0.802        0.098
  YS02006553           JUNCTION        1.55          1.131        0.059
  YS02006561           JUNCTION        0.55          1.150        0.000
  YS02006556           JUNCTION        1.19          1.247        0.103
  YS02006558           JUNCTION        1.15          1.281        0.119
  YS02001783           JUNCTION        1.12          1.329        0.271
  YS02001784           JUNCTION        1.15          1.365        0.125
  YS02001786           JUNCTION        0.98          1.430        0.000
  YS02001788           JUNCTION        0.96          1.480        0.000
  YS02001790           JUNCTION        1.71          1.157        0.000
  YS02001791           JUNCTION        1.73          1.035        0.885
  YS02001793           JUNCTION        1.80          0.931        1.669
  
  
  *********************
  Node Flooding Summary
  *********************
  
  Flooding refers to all water that overflows a node, whether it ponds or not.
  --------------------------------------------------------------------------
                                                             Total   Maximum
                                 Maximum   Time of Max       Flood    Ponded
                        Hours       Rate    Occurrence      Volume     Depth
  Node                 Flooded       LPS   days hr:min    10^6 ltr    Meters
  --------------------------------------------------------------------------
  WS02006256              0.01    406.11      0  00:00       0.001     0.000
  YS02001748              0.01    113.93      0  02:43       0.000     0.000
  YS02001779              2.80    414.33      0  03:26       0.982     0.000
  YS02001890              0.01     17.05      0  02:56       0.000     0.000
  YS02001907              0.30    432.43      0  02:59       0.157     0.000
  YS02001619              0.01     29.54      0  02:34       0.000     0.000
  YS02001629              0.01      1.52      0  02:44       0.000     0.000
  YS02001644              4.67   1123.96      0  03:24       7.078     0.000
  YS02001652              0.01     19.38      0  03:03       0.000     0.000
  YS02001655              0.01     19.61      0  03:10       0.000     0.000
  YS02001658              0.01     13.04      0  03:09       0.000     0.000
  YS02001661              0.01    161.55      0  03:03       0.000     0.000
  YS02001622              0.01     40.59      0  02:34       0.000     0.000
  YS02001649              0.09     46.56      0  03:09       0.004     0.000
  YS02001625              0.83    168.94      0  03:01       0.235     0.000
  YS02006561              0.01     55.06      0  02:56       0.000     0.000
  YS02001786              0.01      6.75      0  02:55       0.000     0.000
  YS02001788              0.01    110.63      0  02:55       0.000     0.000
  YS02001790              0.01    132.62      0  02:55       0.000     0.000
  JK-storage              1.61    933.15      0  03:20       1.773     0.000
  XR-storage              4.39    440.90      0  03:10       2.133     0.000
  
  
  **********************
  Storage Volume Summary
  **********************
  
  --------------------------------------------------------------------------------------------------
                         Average     Avg  Evap Exfil       Maximum     Max    Time of Max    Maximum
                          Volume    Pcnt  Pcnt  Pcnt        Volume    Pcnt     Occurrence    Outflow
  Storage Unit           1000 m3    Full  Loss  Loss       1000 m3    Full    days hr:min        LPS
  --------------------------------------------------------------------------------------------------
  JK-storage               0.129      44     0     0         0.291     100       0  02:56     659.31
  CC-storage               2.933      19     0     0         3.912      25       0  03:22     399.92
  XR-storage               0.797      86     0     0         0.926     100       0  02:59     379.92
  
  
  ***********************
  Outfall Loading Summary
  ***********************
  
  -----------------------------------------------------------
                         Flow       Avg       Max       Total
                         Freq      Flow      Flow      Volume
  Outfall Node           Pcnt       LPS       LPS    10^6 ltr
  -----------------------------------------------------------
  WSC                   99.99    619.64    962.13      15.319
  3                     94.06    282.72    597.65       5.614
  4                     19.18     34.45     60.02       0.131
  5                      0.00      0.00      0.00       0.000
  -----------------------------------------------------------
  System                53.31    936.81   1519.09      21.064
  
  
  ********************
  Link Flow Summary
  ********************
  
  -----------------------------------------------------------------------------
                                 Maximum  Time of Max   Maximum    Max/    Max/
                                  |Flow|   Occurrence   |Veloc|    Full    Full
  Link                 Type          LPS  days hr:min     m/sec    Flow   Depth
  -----------------------------------------------------------------------------
  WS02003066WSF200     CONDUIT    659.73     0  03:05      2.82    0.11    0.26
  WS02006287WS02006284 CONDUIT    375.44     0  03:02      1.98    0.17    0.29
  WS02006284WS02006280 CONDUIT    375.54     0  03:02      2.22    0.16    0.27
  WS02006280WS02006229 CONDUIT    375.58     0  03:02      3.58    0.08    0.19
  WS02006229WS02006228 CONDUIT    651.27     0  03:02      1.30    2.16    1.00
  WS02006256WS02006235 CONDUIT    177.52     0  00:01      2.73    1.88    1.00
  WS02006253WS02006251 CONDUIT     85.96     0  03:00      0.46    0.26    0.86
  WS02006252WS02006251 CONDUIT    399.98     0  07:20      3.18    1.47    1.00
  WS02006251WS02006249 CONDUIT    390.48     0  07:20      1.14    1.13    0.83
  WS02006249WS02006248 CONDUIT    337.15     0  07:20      1.11    1.85    0.81
  WS02006248WS02006247 CONDUIT    332.56     0  07:20      1.06    0.72    0.86
  WS02006247WS02006245 CONDUIT    328.87     0  07:20      1.02    2.61    0.92
  WS02006245WS02006243 CONDUIT    325.59     0  07:20      1.06    0.96    0.95
  WS02006243WS02006242 CONDUIT    318.84     0  07:21      0.90    0.68    1.00
  WS02006242WS02006240 CONDUIT    314.36     0  07:21      0.83    1.25    1.00
  WS02006240WS02006239 CONDUIT    308.80     0  07:21      0.84    0.97    1.00
  WS02006239WS02006238 CONDUIT    305.95     0  07:22      0.79    0.98    1.00
  WS02006238WS02006235 CONDUIT    305.88     0  07:21      1.32    0.68    1.00
  WS02006235WS02006234 CONDUIT    381.90     0  07:22      1.02    4.03    1.00
  WS02006234WS02006232 CONDUIT    380.97     0  07:22      1.17    0.77    1.00
  WS02006232WS02006231 CONDUIT    380.84     0  07:22      1.05    0.80    1.00
  WS02006231WS02006230 CONDUIT    379.22     0  07:23      1.34    5.75    1.00
  WS02006230WS02006229 CONDUIT    387.92     0  07:23      1.01    8.63    1.00
  WS02006228WS02006109 CONDUIT    651.14     0  03:02      1.30    2.84    1.00
  WS02006116WS02004401 CONDUIT    664.34     0  03:02      0.86    0.92    0.96
  WS02006115WS02006116 CONDUIT    666.47     0  03:02      0.90    0.86    0.89
  WS02006113WS02006111 CONDUIT    684.13     0  03:02      2.59    0.82    0.53
  WS02006112WS02006115 CONDUIT    666.85     0  03:02      0.87    0.39    0.94
  WS02006111WS02006112 CONDUIT    655.24     0  03:02      1.72    0.31    0.71
  WS02006110WS02006113 CONDUIT    653.83     0  03:02      1.50    0.59    0.82
  WS02006109WS02006110 CONDUIT    652.46     0  03:02      1.30    1.25    1.00
  WS02004411WS02004412 CONDUIT    659.82     0  03:04      1.03    0.94    0.76
  WS02004401WS02004402 CONDUIT    662.65     0  03:03      0.85    0.80    0.98
  WS02004413WS02003067 CONDUIT    659.35     0  03:05      1.25    0.28    0.64
  WS02004412WS02004413 CONDUIT    659.55     0  03:04      0.94    0.44    0.84
  WS02004410WS02004411 CONDUIT    659.99     0  03:04      1.03    0.90    0.76
  WS02004409WS02004410 CONDUIT    660.49     0  03:03      1.04    0.85    0.76
  WS02004407WS02004409 CONDUIT    660.96     0  03:03      1.53    0.23    0.54
  WS02004406WS02004407 CONDUIT    661.42     0  03:03      1.19    0.30    0.66
  WS02004405WS02004406 CONDUIT    661.12     0  03:03      0.84    1.30    1.00
  WS02004404WS02004405 CONDUIT    660.97     0  03:03      0.84    6.48    1.00
  WS02004403WS02004404 CONDUIT    660.75     0  03:03      0.84    0.48    1.00
  WS02004402WS02004403 CONDUIT    661.10     0  03:03      0.84    0.95    0.99
  WS02004139WS02001211 CONDUIT    368.51     0  07:20      0.80    0.47    0.55
  WS02004138WS02004139 CONDUIT    378.70     0  07:20      3.34    0.08    0.41
  WS02003067WS02003066 CONDUIT    659.59     0  03:05      1.35    0.21    0.45
  WS02001213WS02003059 CONDUIT    359.81     0  07:22      0.80    0.59    0.75
  WS02001212WS02001213 CONDUIT    365.21     0  07:21      1.28    0.56    0.44
  WS02001211WS02001212 CONDUIT    368.27     0  07:21      0.76    0.28    0.60
  WS02003072WS02003073 CONDUIT    960.39     0  03:03      1.74    2.07    0.49
  WS02003069WS02003072 CONDUIT    960.37     0  03:02      1.63    0.46    0.52
  WS02003060WS02003069 CONDUIT    960.09     0  03:02      1.88    0.38    0.46
  WS02003059WS02003060 CONDUIT    352.90     0  07:22      0.82    0.23    0.66
  HS02004901HS02004770 CONDUIT     17.71     0  03:01      0.07    0.07    0.39
  HS02004876HS02004881 CONDUIT     71.90     0  03:01      0.92    0.76    0.11
  HS02004870HS02004876 CONDUIT     58.03     0  03:01      0.63    0.04    0.13
  HS02004842HS02004848 CONDUIT     11.42     0  03:01      0.05    0.01    0.30
  HS02004837HS02004842 CONDUIT     11.94     0  03:02      0.41    0.01    0.32
  HS02004830HS02004837 CONDUIT     41.69     0  03:01      0.56    0.04    0.11
  HS02004824HS02004830 CONDUIT     41.67     0  03:01      0.58    0.05    0.10
  HS02004817HS02004824 CONDUIT     81.58     0  03:01      0.25    0.04    0.47
  HS02004770HS02004777 CONDUIT     90.21     0  03:01      0.32    0.16    0.41
  HS02004799HS02004480 CONDUIT    226.97     0  03:01      0.78    0.29    0.42
  HS02004792HS02004799 CONDUIT    206.60     0  03:01      0.88    0.13    0.33
  HS02004788HS02004792 CONDUIT    118.94     0  03:01      1.01    0.08    0.17
  HS02004785HS02004788 CONDUIT     89.52     0  03:02      0.66    0.67    0.19
  HS02004777HS02004785 CONDUIT     89.64     0  03:01      0.38    0.11    0.33
  HS02004480HS02004478 CONDUIT    269.12     0  03:01      1.20    1.13    0.32
  HS02004479HS02004480 CONDUIT     44.17     0  03:02      0.23    0.04    0.40
  HS02004862HS02004870 CONDUIT     44.23     0  03:01      0.64    0.05    0.10
  HS02004848HS02004852 CONDUIT     20.44     0  03:01      0.44    0.02    0.07
  HS02004856HS02004862 CONDUIT     30.57     0  03:01      0.47    0.03    0.09
  HS02004852HS02004856 CONDUIT     20.26     0  03:01      0.24    0.02    0.12
  HS02004802HS02004478 CONDUIT    106.59     0  03:02      0.45    0.09    0.35
  HS02004478WS02006287 CONDUIT    375.27     0  03:01      1.68    0.11    0.25
  HS02004817HS02004807 CONDUIT     82.18     0  03:01      0.19    0.05    0.62
  HS02004807HS02004802 CONDUIT    106.49     0  03:01      0.38    0.20    0.40
  YS02001759YS02001757 CONDUIT    661.19     0  02:55      0.84    0.47    1.00
  YS02001762YS02001759 CONDUIT    334.94     0  02:54      0.43    0.39    1.00
  YS02001765YS02001762 CONDUIT    334.86     0  02:54      0.43    0.31    1.00
  YS02001770YS02001767 CONDUIT    334.22     0  02:54      0.43    1.32    1.00
  YS02001774YS02001770 CONDUIT    414.36     0  03:26      0.53    0.26    1.00
  YS02001779YS02001774 CONDUIT    414.52     0  03:26      0.53    0.21    1.00
  YS02001649YS02001757 CONDUIT    934.58     0  02:50      1.19    0.57    1.00
  YS02001767YS02001765 CONDUIT    334.93     0  02:54      0.43    0.42    1.00
  YS02006561YS02001783 CONDUIT   1035.44     0  02:55      2.26    0.54    1.00
  YS02001783YS02001784 CONDUIT   1035.48     0  02:55      2.06    1.43    1.00
  YS02001784YS02001785 CONDUIT   1036.08     0  02:55      2.08    2.41    1.00
  YS02001788YS02001790 CONDUIT   1016.59     0  02:54      2.56    0.75    1.00
  YS02001790YS02001791 CONDUIT   1071.75     0  02:54      3.20    1.17    1.00
  YS02001791YS02001793 CONDUIT    994.10     0  02:53      6.24    0.43    1.00
  YS02001910YS02001907 CONDUIT    565.66     0  02:59      0.72    0.32    1.00
  YS02001786YS02001788 CONDUIT   1024.32     0  02:55      2.36    1.97    1.00
  YS02001915YS02001910 CONDUIT    565.41     0  02:59      0.72    0.28    1.00
  YS02001918YS02001915 CONDUIT    307.18     0  02:59      0.44    0.17    1.00
  YS02001923YS02001920 CONDUIT    303.02     0  02:59      0.68    0.14    1.00
  YS02001926YS02001923 CONDUIT    320.58     0  02:59      0.79    0.46    0.99
  YS02001929YS02001926 CONDUIT    273.16     0  03:00      0.85    0.13    0.89
  YS02001920YS02001918 CONDUIT    305.81     0  02:59      0.67    0.30    1.00
  YS02001629YS02163301 CONDUIT    206.97     0  02:49      0.26    0.25    1.00
  YS02001619YS02001622 CONDUIT    257.43     0  03:01      0.61    0.38    1.00
  YS02001622YS02001625 CONDUIT    257.39     0  03:01      0.33    0.14    1.00
  YS02001625YS02001629 CONDUIT    206.67     0  02:50      0.26    0.10    1.00
  YS02163301YS02001633 CONDUIT    207.27     0  02:49      0.26    0.19    1.00
  YS02163601YS02164001 CONDUIT    437.75     0  02:50      0.56    0.39    1.00
  YS02164001YS02001641 CONDUIT    438.33     0  02:50      0.56    0.60    1.00
  YS02001641YS02001644 CONDUIT    438.34     0  02:50      0.56    1.42    1.00
  YS02001647YS02001649 CONDUIT    666.80     0  02:50      0.85    0.35    1.00
  YS02006553YS02006556 CONDUIT    691.10     0  02:55      0.88    0.59    1.00
  YS02006556YS02006558 CONDUIT    691.22     0  02:55      0.88    0.55    1.00
  YSB6556YSB1171       CONDUIT     24.81     0  03:03      0.09    0.03    0.67
  YS02001907YS02006553 CONDUIT    691.43     0  02:55      0.77    0.81    1.00
  YS02006558YS02006561 CONDUIT   1051.30     0  02:55      3.73    2.32    1.00
  YS02001633YS02163601 CONDUIT    437.71     0  02:50      0.56    0.46    1.00
  YS02001644YS02001647 CONDUIT    667.00     0  02:50      0.85    0.39    1.00
  YS02001745YS02001748 CONDUIT    508.73     0  02:43      1.48    0.20    0.95
  YS02001748YS02001751 CONDUIT    306.83     0  03:01      1.05    0.15    1.00
  YS02001751YS02001754 CONDUIT    306.91     0  03:01      0.88    0.15    1.00
  YS02001754YS02001757 CONDUIT    306.97     0  03:01      0.39    0.12    1.00
  YS02001882YS02001884 CONDUIT     15.00     0  02:52      0.09    0.02    1.00
  YS02001884YS02001887 CONDUIT     24.16     0  02:30      0.05    0.03    1.00
  YS02001890YS02001895 CONDUIT    453.49     0  03:01      0.58    0.21    1.00
  YS02001895YS02001898 CONDUIT    453.56     0  03:01      0.58    0.79    1.00
  YS02001898YS02001901 CONDUIT    453.41     0  03:01      0.58    0.29    1.00
  YS02001901YS02001904 CONDUIT    453.53     0  03:01      0.58    0.70    1.00
  YS02001904YS02001907 CONDUIT    453.44     0  03:01      0.58    0.16    1.00
  YS02001887YS02001890 CONDUIT    453.42     0  03:01      0.58    0.78    1.00
  YS02001652YS02001649 CONDUIT    373.67     0  03:01      0.50    0.19    1.00
  YS02001655YS02001652 CONDUIT    373.47     0  03:01      0.93    0.18    1.00
  YS02001658YS02001655 CONDUIT    373.69     0  03:01      1.21    0.16    1.00
  YS02001661YS02001658 CONDUIT    420.00     0  02:42      1.56    0.16    1.00
  YS02001664YS02001661 CONDUIT    690.36     0  02:54      1.58    0.22    0.73
  YSB1154YSB6556       CONDUIT     24.91     0  03:01      0.19    0.04    0.56
  YSB1174YSB1171       CONDUIT     18.78     0  03:01      0.07    0.03    0.68
  YSB1171HS02004479    CONDUIT     42.82     0  03:02      0.54    0.03    0.53
  HS02004881HS02006253 CONDUIT     79.15     0  03:01      1.78    0.02    0.20
  YS02001793JiankangQianchi CONDUIT    968.63     0  02:52     16.38    0.08    1.00
  YS02001757CaochengTiaoxuchi CONDUIT   1774.32     0  02:51      2.39    0.78    1.00
  WSF200WS02003060     CONDUIT    660.98     0  03:05      1.80    0.15    0.36
  1                    CONDUIT    962.13     0  03:04      3.29    0.34    0.40
  2                    CONDUIT     60.02     0  03:00      4.19    0.14    0.26
  3                    CONDUIT    597.65     0  00:00     10.05    0.95    0.86
  4                    CONDUIT      0.00     0  00:00      0.00    0.00    0.00
  CC-Pump-1            PUMP       200.00     0  01:59              1.00
  CC-Pump-2            PUMP       199.99     0  02:30              1.00
  JK-Pump-1            PUMP       300.00     0  00:00              1.00
  JK-Pump-2            PUMP       300.00     0  00:00              1.00
  XR-Pump-1            PUMP        95.00     0  03:00              1.00
  XR-Pump-2            PUMP        95.00     0  00:00              1.00
  XR-Pump-3            PUMP        95.00     0  00:00              1.00
  XR-Pump-4            PUMP        95.00     0  00:00              1.00
  
  
  ***************************
  Flow Classification Summary
  ***************************
  
  -------------------------------------------------------------------------------------
                      Adjusted    ---------- Fraction of Time in Flow Class ---------- 
                       /Actual         Up    Down  Sub   Sup   Up    Down  Norm  Inlet 
  Conduit               Length    Dry  Dry   Dry   Crit  Crit  Crit  Crit  Ltd   Ctrl  
  -------------------------------------------------------------------------------------
  WS02003066WSF200        1.00   0.07  0.00  0.00  0.00  0.93  0.00  0.00  0.59  0.00
  WS02006287WS02006284    1.00   0.03  0.01  0.00  0.56  0.40  0.00  0.00  0.65  0.00
  WS02006284WS02006280    1.00   0.04  0.00  0.00  0.00  0.00  0.00  0.96  0.00  0.00
  WS02006280WS02006229    1.00   0.04  0.00  0.00  0.00  0.00  0.00  0.96  0.00  0.00
  WS02006229WS02006228    1.00   0.00  0.00  0.00  0.98  0.00  0.00  0.02  0.00  0.00
  WS02006256WS02006235    1.00   0.00  0.00  0.00  1.00  0.00  0.00  0.00  0.00  0.00
  WS02006253WS02006251    1.00   0.02  0.01  0.00  0.97  0.00  0.00  0.00  0.00  0.00
  WS02006252WS02006251    1.00   0.07  0.00  0.00  0.00  0.00  0.93  0.00  0.00  0.00
  WS02006251WS02006249    1.00   0.00  0.00  0.00  1.00  0.00  0.00  0.00  0.37  0.00
  WS02006249WS02006248    1.00   0.00  0.02  0.00  0.78  0.00  0.20  0.00  0.00  0.00
  WS02006248WS02006247    1.00   0.02  0.00  0.00  0.97  0.00  0.00  0.01  0.26  0.00
  WS02006247WS02006245    1.00   0.02  0.00  0.00  0.97  0.00  0.00  0.02  0.00  0.00
  WS02006245WS02006243    1.00   0.02  0.00  0.00  0.95  0.00  0.00  0.03  0.01  0.00
  WS02006243WS02006242    1.00   0.01  0.00  0.00  0.99  0.00  0.00  0.00  0.20  0.00
  WS02006242WS02006240    1.00   0.00  0.00  0.00  1.00  0.00  0.00  0.00  0.00  0.00
  WS02006240WS02006239    1.00   0.00  0.00  0.00  0.96  0.00  0.00  0.03  0.02  0.00
  WS02006239WS02006238    1.00   0.00  0.00  0.00  1.00  0.00  0.00  0.00  0.00  0.00
  WS02006238WS02006235    1.00   0.00  0.00  0.00  1.00  0.00  0.00  0.00  0.00  0.00
  WS02006235WS02006234    1.00   0.00  0.00  0.00  0.96  0.00  0.04  0.00  0.00  0.00
  WS02006234WS02006232    1.00   0.00  0.00  0.00  1.00  0.00  0.00  0.00  0.00  0.00
  WS02006232WS02006231    1.00   0.00  0.00  0.00  0.99  0.00  0.01  0.00  0.00  0.00
  WS02006231WS02006230    1.00   0.00  0.00  0.00  0.55  0.00  0.44  0.00  0.00  0.00
  WS02006230WS02006229    1.00   0.00  0.00  0.00  0.98  0.00  0.00  0.02  0.01  0.00
  WS02006228WS02006109    1.00   0.00  0.00  0.00  1.00  0.00  0.00  0.00  0.00  0.00
  WS02006116WS02004401    1.00   0.02  0.00  0.00  0.98  0.00  0.00  0.00  0.00  0.00
  WS02006115WS02006116    1.00   0.02  0.00  0.00  0.97  0.00  0.00  0.01  0.01  0.00
  WS02006113WS02006111    1.00   0.02  0.00  0.00  0.00  0.98  0.00  0.00  0.11  0.00
  WS02006112WS02006115    1.00   0.02  0.00  0.00  0.98  0.00  0.00  0.00  0.00  0.00
  WS02006111WS02006112    1.00   0.02  0.00  0.00  0.98  0.00  0.00  0.00  0.91  0.00
  WS02006110WS02006113    1.00   0.01  0.00  0.00  0.98  0.00  0.00  0.00  0.00  0.00
  WS02006109WS02006110    1.00   0.00  0.01  0.00  0.98  0.00  0.00  0.00  0.00  0.00
  WS02004411WS02004412    1.00   0.05  0.00  0.00  0.95  0.00  0.00  0.00  0.00  0.00
  WS02004401WS02004402    1.00   0.02  0.00  0.00  0.98  0.00  0.00  0.00  0.00  0.00
  WS02004413WS02003067    1.00   0.05  0.01  0.00  0.00  0.00  0.94  0.00  0.00  0.00
  WS02004412WS02004413    1.00   0.05  0.00  0.00  0.95  0.00  0.00  0.00  0.01  0.00
  WS02004410WS02004411    1.00   0.04  0.00  0.00  0.96  0.00  0.00  0.00  0.00  0.00
  WS02004409WS02004410    1.00   0.04  0.00  0.00  0.96  0.00  0.00  0.00  0.00  0.00
  WS02004407WS02004409    1.00   0.04  0.00  0.00  0.95  0.00  0.00  0.00  0.80  0.00
  WS02004406WS02004407    1.00   0.00  0.04  0.00  0.96  0.00  0.00  0.00  0.00  0.00
  WS02004405WS02004406    1.00   0.00  0.00  0.00  1.00  0.00  0.00  0.00  0.02  0.00
  WS02004404WS02004405    1.00   0.00  0.00  0.00  1.00  0.00  0.00  0.00  0.00  0.00
  WS02004403WS02004404    1.00   0.00  0.02  0.00  0.98  0.00  0.00  0.00  0.02  0.00
  WS02004402WS02004403    1.00   0.02  0.00  0.00  0.98  0.00  0.00  0.00  0.00  0.00
  WS02004139WS02001211    1.00   0.00  0.00  0.00  0.99  0.00  0.01  0.00  0.00  0.00
  WS02004138WS02004139    1.00   0.00  0.00  0.00  0.99  0.01  0.00  0.00  1.00  0.00
  WS02003067WS02003066    1.00   0.06  0.01  0.00  0.94  0.00  0.00  0.00  0.00  0.00
  WS02001213WS02003059    1.00   0.00  0.00  0.00  0.99  0.00  0.00  0.00  0.00  0.00
  WS02001212WS02001213    1.00   0.00  0.00  0.00  0.78  0.00  0.21  0.00  0.00  0.00
  WS02001211WS02001212    1.00   0.00  0.00  0.00  1.00  0.00  0.00  0.00  0.00  0.00
  WS02003072WS02003073    1.00   0.00  0.00  0.00  0.00  0.00  0.00  1.00  0.00  0.00
  WS02003069WS02003072    1.00   0.00  0.00  0.00  0.99  0.01  0.00  0.00  0.29  0.00
  WS02003060WS02003069    1.00   0.00  0.00  0.00  0.99  0.01  0.00  0.00  0.07  0.00
  WS02003059WS02003060    1.00   0.00  0.00  0.00  0.99  0.01  0.00  0.00  0.01  0.00
  HS02004901HS02004770    1.00   0.03  0.00  0.00  0.97  0.00  0.00  0.00  0.00  0.00
  HS02004876HS02004881    1.00   0.02  0.00  0.00  0.89  0.09  0.00  0.00  0.00  0.00
  HS02004870HS02004876    1.00   0.01  0.00  0.00  0.99  0.00  0.00  0.00  0.95  0.00
  HS02004842HS02004848    1.00   0.00  0.03  0.00  0.96  0.00  0.00  0.00  0.58  0.00
  HS02004837HS02004842    1.00   0.00  0.00  0.00  0.99  0.01  0.00  0.00  0.11  0.00
  HS02004830HS02004837    1.00   0.00  0.00  0.00  1.00  0.00  0.00  0.00  0.99  0.00
  HS02004824HS02004830    1.00   0.00  0.00  0.00  1.00  0.00  0.00  0.00  0.00  0.00
  HS02004817HS02004824    1.00   0.00  0.00  0.00  1.00  0.00  0.00  0.00  1.00  0.00
  HS02004770HS02004777    1.00   0.00  0.03  0.00  0.97  0.00  0.00  0.00  0.03  0.00
  HS02004799HS02004480    1.00   0.00  0.02  0.00  0.96  0.00  0.02  0.00  0.00  0.00
  HS02004792HS02004799    1.00   0.00  0.00  0.00  0.99  0.01  0.00  0.00  0.98  0.00
  HS02004788HS02004792    1.00   0.00  0.00  0.00  0.99  0.01  0.00  0.00  0.98  0.00
  HS02004785HS02004788    1.00   0.00  0.00  0.00  1.00  0.00  0.00  0.00  0.00  0.00
  HS02004777HS02004785    1.00   0.00  0.00  0.00  1.00  0.00  0.00  0.00  0.14  0.00
  HS02004480HS02004478    1.00   0.04  0.00  0.00  0.64  0.00  0.00  0.33  0.00  0.00
  HS02004479HS02004480    1.00   0.02  0.00  0.00  0.98  0.00  0.00  0.00  0.13  0.00
  HS02004862HS02004870    1.00   0.00  0.00  0.00  1.00  0.00  0.00  0.00  0.05  0.00
  HS02004848HS02004852    1.00   0.04  0.00  0.00  0.96  0.00  0.00  0.00  0.61  0.00
  HS02004856HS02004862    1.00   0.00  0.05  0.00  0.95  0.00  0.00  0.00  0.80  0.00
  HS02004852HS02004856    1.00   0.03  0.00  0.00  0.96  0.00  0.00  0.00  0.85  0.00
  HS02004802HS02004478    1.00   0.04  0.00  0.00  0.96  0.00  0.00  0.00  0.03  0.00
  HS02004478WS02006287    1.00   0.04  0.00  0.00  0.69  0.27  0.00  0.00  0.66  0.00
  HS02004817HS02004807    1.00   0.00  0.03  0.00  0.97  0.00  0.00  0.00  0.01  0.00
  HS02004807HS02004802    1.00   0.03  0.00  0.00  0.96  0.00  0.00  0.00  0.00  0.00
  YS02001759YS02001757    1.00   0.00  0.00  0.00  1.00  0.00  0.00  0.00  0.16  0.00
  YS02001762YS02001759    1.00   0.00  0.00  0.00  1.00  0.00  0.00  0.00  0.03  0.00
  YS02001765YS02001762    1.00   0.00  0.00  0.00  1.00  0.00  0.00  0.00  0.16  0.00
  YS02001770YS02001767    1.00   0.00  0.00  0.00  1.00  0.00  0.00  0.00  0.00  0.00
  YS02001774YS02001770    1.00   0.00  0.03  0.00  0.96  0.00  0.00  0.00  0.04  0.00
  YS02001779YS02001774    1.00   0.00  0.00  0.00  1.00  0.00  0.00  0.00  0.21  0.00
  YS02001649YS02001757    1.00   0.00  0.00  0.00  1.00  0.00  0.00  0.00  0.17  0.00
  YS02001767YS02001765    1.00   0.00  0.00  0.00  1.00  0.00  0.00  0.00  0.00  0.00
  YS02006561YS02001783    1.00   0.05  0.00  0.00  0.35  0.60  0.00  0.00  0.56  0.00
  YS02001783YS02001784    1.00   0.00  0.05  0.00  0.95  0.00  0.00  0.00  0.01  0.00
  YS02001784YS02001785    1.00   0.00  0.00  0.00  1.00  0.00  0.00  0.00  0.20  0.00
  YS02001788YS02001790    1.00   0.00  0.00  0.00  0.34  0.66  0.00  0.00  0.48  0.00
  YS02001790YS02001791    1.00   0.00  0.00  0.00  0.31  0.69  0.00  0.00  0.49  0.00
  YS02001791YS02001793    1.00   0.00  0.00  0.00  0.37  0.63  0.00  0.00  0.07  0.00
  YS02001910YS02001907    1.00   0.00  0.00  0.00  0.98  0.00  0.00  0.02  0.13  0.00
  YS02001786YS02001788    1.00   0.00  0.00  0.00  0.35  0.65  0.00  0.00  0.00  0.00
  YS02001915YS02001910    1.00   0.00  0.00  0.00  0.99  0.01  0.00  0.00  0.18  0.00
  YS02001918YS02001915    1.00   0.00  0.01  0.00  0.99  0.00  0.00  0.00  0.58  0.00
  YS02001923YS02001920    1.00   0.00  0.00  0.00  1.00  0.00  0.00  0.00  0.86  0.00
  YS02001926YS02001923    1.00   0.00  0.03  0.00  0.12  0.00  0.85  0.00  0.00  0.00
  YS02001929YS02001926    1.00   0.00  0.03  0.00  0.97  0.00  0.00  0.00  0.80  0.00
  YS02001920YS02001918    1.00   0.00  0.01  0.00  0.99  0.00  0.00  0.00  0.00  0.00
  YS02001629YS02163301    1.00   0.04  0.00  0.00  0.96  0.00  0.00  0.00  0.00  0.00
  YS02001619YS02001622    1.00   0.03  0.00  0.00  0.97  0.00  0.00  0.00  0.00  0.00
  YS02001622YS02001625    1.00   0.04  0.00  0.00  0.96  0.00  0.00  0.00  0.07  0.00
  YS02001625YS02001629    1.00   0.04  0.01  0.00  0.93  0.00  0.02  0.00  0.00  0.00
  YS02163301YS02001633    1.00   0.00  0.04  0.00  0.96  0.00  0.00  0.00  0.00  0.00
  YS02163601YS02164001    1.00   0.00  0.03  0.00  0.97  0.00  0.00  0.00  0.00  0.00
  YS02164001YS02001641    1.00   0.01  0.02  0.00  0.97  0.00  0.00  0.00  0.06  0.00
  YS02001641YS02001644    1.00   0.00  0.01  0.00  0.99  0.00  0.00  0.00  0.00  0.00
  YS02001647YS02001649    1.00   0.00  0.05  0.00  0.95  0.00  0.00  0.00  0.01  0.00
  YS02006553YS02006556    1.00   0.02  0.00  0.00  0.98  0.00  0.00  0.00  0.03  0.00
  YS02006556YS02006558    1.00   0.00  0.00  0.00  1.00  0.00  0.00  0.00  0.00  0.00
  YSB6556YSB1171          1.00   0.02  0.01  0.00  0.97  0.00  0.00  0.00  0.00  0.00
  YS02001907YS02006553    1.00   0.00  0.01  0.00  0.98  0.00  0.00  0.00  0.00  0.00
  YS02006558YS02006561    1.00   0.05  0.00  0.00  0.14  0.82  0.00  0.00  0.47  0.00
  YS02001633YS02163601    1.00   0.00  0.01  0.00  0.99  0.00  0.00  0.00  0.16  0.00
  YS02001644YS02001647    1.00   0.00  0.05  0.00  0.95  0.00  0.00  0.00  0.00  0.00
  YS02001745YS02001748    1.00   0.00  0.00  0.00  0.89  0.01  0.00  0.10  0.05  0.00
  YS02001748YS02001751    1.00   0.00  0.00  0.00  0.97  0.03  0.00  0.00  0.15  0.00
  YS02001751YS02001754    1.00   0.00  0.00  0.00  0.95  0.00  0.00  0.05  0.02  0.00
  YS02001754YS02001757    1.00   0.00  0.00  0.00  0.99  0.01  0.00  0.00  0.20  0.00
  YS02001882YS02001884    1.00   0.04  0.00  0.00  0.96  0.00  0.00  0.00  0.00  0.00
  YS02001884YS02001887    1.00   0.02  0.01  0.00  0.97  0.00  0.00  0.00  0.00  0.00
  YS02001890YS02001895    1.00   0.00  0.04  0.00  0.96  0.00  0.00  0.00  0.00  0.00
  YS02001895YS02001898    1.00   0.04  0.00  0.00  0.95  0.00  0.01  0.00  0.00  0.00
  YS02001898YS02001901    1.00   0.04  0.00  0.00  0.96  0.00  0.00  0.00  0.02  0.00
  YS02001901YS02001904    1.00   0.04  0.00  0.00  0.96  0.00  0.00  0.00  0.00  0.00
  YS02001904YS02001907    1.00   0.00  0.04  0.00  0.96  0.00  0.00  0.00  0.00  0.00
  YS02001887YS02001890    1.00   0.00  0.00  0.00  0.98  0.00  0.02  0.00  0.00  0.00
  YS02001652YS02001649    1.00   0.00  0.00  0.00  1.00  0.00  0.00  0.00  0.18  0.00
  YS02001655YS02001652    1.00   0.00  0.00  0.00  0.95  0.00  0.00  0.05  0.02  0.00
  YS02001658YS02001655    1.00   0.00  0.04  0.00  0.93  0.03  0.00  0.00  0.11  0.00
  YS02001661YS02001658    1.00   0.04  0.00  0.00  0.89  0.08  0.00  0.00  0.06  0.00
  YS02001664YS02001661    1.00   0.03  0.00  0.00  0.85  0.11  0.00  0.00  0.22  0.00
  YSB1154YSB6556          1.00   0.03  0.00  0.00  0.97  0.00  0.00  0.00  0.02  0.00
  YSB1174YSB1171          1.00   0.02  0.01  0.00  0.97  0.00  0.00  0.00  0.00  0.00
  YSB1171HS02004479       1.00   0.02  0.00  0.00  0.98  0.00  0.00  0.00  0.11  0.00
  HS02004881HS02006253    1.00   0.02  0.00  0.00  0.68  0.02  0.00  0.28  0.53  0.00
  YS02001793JiankangQianchi    1.00   0.00  0.00  0.00  0.57  0.42  0.00  0.00  0.16  0.00
  YS02001757CaochengTiaoxuchi    1.00   0.00  0.07  0.00  0.92  0.01  0.00  0.00  0.00  0.00
  WSF200WS02003060        1.00   0.00  0.07  0.00  0.86  0.07  0.00  0.00  0.19  0.00
  1                       1.00   0.00  0.00  0.00  0.00  1.00  0.00  0.00  0.30  0.00
  2                       1.00   0.81  0.00  0.00  0.00  0.19  0.00  0.00  0.01  0.00
  3                       1.00   0.06  0.00  0.00  0.00  0.94  0.00  0.00  0.02  0.00
  4                       1.00   1.00  0.00  0.00  0.00  0.00  0.00  0.00  0.00  0.00
  
  
  *************************
  Conduit Surcharge Summary
  *************************
  
  ----------------------------------------------------------------------------
                                                           Hours        Hours 
                         --------- Hours Full --------   Above Full   Capacity
  Conduit                Both Ends  Upstream  Dnstream   Normal Flow   Limited
  ----------------------------------------------------------------------------
  WS02006229WS02006228        1.27      1.34      1.27      4.38         1.27
  WS02006256WS02006235        6.06      6.06      7.83      4.87         0.01
  WS02006252WS02006251        0.07      0.07      0.19      0.16         0.01
  WS02006251WS02006249        0.01      0.01      0.01      0.06         0.01
  WS02006249WS02006248        0.01      0.01      0.01      3.92         0.01
  WS02006247WS02006245        0.01      0.01      0.01      4.18         0.01
  WS02006243WS02006242        0.01      0.01      0.92      0.01         0.01
  WS02006242WS02006240        0.86      0.86      1.04      0.17         0.01
  WS02006240WS02006239        0.88      0.88      0.94      0.01         0.01
  WS02006239WS02006238        1.06      1.06      1.11      0.01         0.01
  WS02006238WS02006235        1.07      1.07      1.19      0.01         0.01
  WS02006235WS02006234        0.98      0.98      1.04      6.09         0.01
  WS02006234WS02006232        1.02      1.02      1.25      0.01         0.01
  WS02006232WS02006231        0.88      0.88      1.25      0.01         0.01
  WS02006231WS02006230        0.66      0.66      0.92      6.05         0.01
  WS02006230WS02006229        2.11      4.19      2.11      6.12         2.11
  WS02006228WS02006109        1.31      1.78      1.31      4.76         1.31
  WS02006112WS02006115        0.01      0.01      1.13      0.01         0.01
  WS02006111WS02006112        0.01      0.01      4.52      0.01         0.01
  WS02006110WS02006113        0.01      0.01      1.57      0.01         0.01
  WS02006109WS02006110        1.06      1.06      1.78      1.07         0.01
  WS02004406WS02004407        0.01      0.01      0.43      0.01         0.01
  WS02004405WS02004406        0.43      0.59      0.43      1.10         0.43
  WS02004404WS02004405        0.59      0.73      0.59      6.00         0.59
  WS02004403WS02004404        0.01      0.01      0.73      0.01         0.01
  WS02003072WS02003073        0.01      0.01      0.01      4.87         0.01
  HS02004480HS02004478        0.01      0.01      0.01      0.25         0.01
  YS02001759YS02001757        5.66      5.66      5.74      0.01         0.01
  YS02001762YS02001759        5.64      5.64      5.66      0.01         0.01
  YS02001765YS02001762        5.61      5.61      5.64      0.01         0.01
  YS02001770YS02001767        5.58      5.58      5.58      0.31         0.77
  YS02001774YS02001770        5.56      5.56      5.63      0.01         0.01
  YS02001779YS02001774        5.39      5.39      5.63      0.01         0.01
  YS02001649YS02001757        5.64      5.64      5.74      0.01         0.01
  YS02001767YS02001765        5.58      5.58      5.61      0.01         0.01
  YS02006561YS02001783        0.55      0.55      1.12      0.01         0.01
  YS02001783YS02001784        1.09      1.12      1.15      1.16         0.90
  YS02001784YS02001785        0.98      1.15      0.98      2.07         0.97
  YS02001788YS02001790        0.96      0.96      1.71      0.01         0.01
  YS02001790YS02001791        1.71      1.71      1.73      0.48         0.40
  YS02001791YS02001793        1.73      1.73      1.83      0.01         0.01
  YS02001910YS02001907        0.96      0.96      1.48      0.01         0.01
  YS02001786YS02001788        0.96      0.98      0.96      1.69         0.96
  YS02001915YS02001910        0.69      0.69      0.96      0.01         0.01
  YS02001918YS02001915        0.42      0.42      0.69      0.01         0.01
  YS02001923YS02001920        0.19      0.19      0.46      0.01         0.01
  YS02001926YS02001923        0.01      0.01      0.01      0.01         0.01
  YS02001929YS02001926        0.01      0.01      0.01      0.01         0.01
  YS02001920YS02001918        0.42      0.42      0.46      0.01         0.01
  YS02001629YS02163301        5.57      5.57      5.57      0.01         0.01
  YS02001619YS02001622        5.24      5.24      5.25      0.01         0.01
  YS02001622YS02001625        5.25      5.25      5.43      0.01         0.01
  YS02001625YS02001629        5.24      5.24      5.43      0.01         0.01
  YS02163301YS02001633        5.57      5.57      5.61      0.01         0.01
  YS02163601YS02164001        5.61      5.61      5.64      0.01         0.01
  YS02164001YS02001641        5.61      5.61      5.62      0.01         0.01
  YS02001641YS02001644        5.62      5.62      5.62      1.22         1.29
  YS02001647YS02001649        5.42      5.42      5.64      0.01         0.01
  YS02006553YS02006556        1.19      1.19      1.55      0.01         0.01
  YS02006556YS02006558        1.37      1.37      1.62      0.01         0.01
  YS02001907YS02006553        2.09      2.09      2.30      0.01         0.01
  YS02006558YS02006561        0.70      1.15      0.70      1.94         0.70
  YS02001633YS02163601        5.60      5.60      5.64      0.01         0.01
  YS02001644YS02001647        5.42      5.42      5.62      0.01         0.01
  YS02001745YS02001748        0.01      0.01      5.05      0.01         0.01
  YS02001748YS02001751        5.10      5.10      5.23      0.01         0.01
  YS02001751YS02001754        5.23      5.23      5.40      0.01         0.01
  YS02001754YS02001757        5.42      5.42      5.74      0.01         0.01
  YS02001882YS02001884        0.72      0.72      0.76      0.01         0.01
  YS02001884YS02001887        0.83      0.83      0.87      0.01         0.01
  YS02001890YS02001895        0.68      0.68      0.98      0.01         0.01
  YS02001895YS02001898        0.66      0.66      0.68      0.01         0.01
  YS02001898YS02001901        0.68      0.68      0.82      0.01         0.01
  YS02001901YS02001904        0.79      0.79      0.82      0.01         0.01
  YS02001904YS02001907        0.79      0.79      1.58      0.01         0.01
  YS02001887YS02001890        0.90      0.90      0.94      0.01         0.01
  YS02001652YS02001649        5.42      5.42      5.64      0.01         0.01
  YS02001655YS02001652        5.26      5.26      5.41      0.01         0.01
  YS02001658YS02001655        5.08      5.08      5.26      0.01         0.01
  YS02001661YS02001658        0.21      0.21      5.08      0.01         0.01
  YS02001664YS02001661        0.01      0.01      1.24      0.01         0.01
  YS02001793JiankangQianchi        1.80      1.80      3.35      0.01         0.01
  YS02001757CaochengTiaoxuchi        4.90      4.90      5.74      0.01         0.01
  3                           0.01      0.01      0.01      0.01         0.01
  
  
  ***************
  Pumping Summary
  ***************
  
  ---------------------------------------------------------------------------------------------------------
                                                  Min       Avg       Max     Total     Power    % Time Off
                        Percent   Number of      Flow      Flow      Flow    Volume     Usage    Pump Curve
  Pump                 Utilized   Start-Ups       LPS       LPS       LPS  10^6 ltr     Kw-hr    Low   High
  ---------------------------------------------------------------------------------------------------------
  CC-Pump-1               58.79           4      0.00    173.75    200.00     2.861      3.62    0.0   13.3
  CC-Pump-2                8.51           2      0.00     99.65    199.99     0.240      0.56    0.0   26.2
  JK-Pump-1               80.85           4      0.00    198.93    300.00     3.278     42.68    0.0    0.0
  JK-Pump-2               97.87           2      0.00    221.97    300.00     4.781     56.29    0.0    0.0
  XR-Pump-1               51.06           5      0.00     72.39     95.00     1.026      6.20    0.0    0.0
  XR-Pump-2               59.57           4      0.00     78.17     95.00     1.397     18.37    0.0    0.0
  XR-Pump-3               97.87           2      0.00     89.45     95.00     2.451     22.49    0.0    0.0
  XR-Pump-4              100.00           3      0.00     82.85     95.00     2.280     19.49    0.0    0.0
  

  Analysis begun on:  Thu Dec 23 14:53:32 2021
  Analysis ended on:  Thu Dec 23 14:53:36 2021
  Total elapsed time: 00:00:04