
  EPA STORM WATER MANAGEMENT MODEL - VERSION 5.1 (Build 5.3.0.dev0)
  --------------------------------------------------------------

  WARNING 04: minimum elevation drop used for Conduit WS02004404WS02004405
  WARNING 03: negative offset ignored for Link YS02001904YS02001907
  
  *********************************************************
  NOTE: The summary statistics displayed in this report are
  based on results found at every computational time step,  
  not just on results from each reporting time step.
  *********************************************************
  
  ****************
  Analysis Options
  ****************
  Flow Units ............... LPS
  Process Models:
    Rainfall/Runoff ........ YES
    RDII ................... NO
    Snowmelt ............... NO
    Groundwater ............ NO
    Flow Routing ........... YES
    Ponding Allowed ........ NO
    Water Quality .......... NO
  Infiltration Method ...... HORTON
  Flow Routing Method ...... DYNWAVE
  Surcharge Method ......... EXTRAN
  Starting Date ............ 08/28/2015 08:00:00
  Ending Date .............. 08/28/2015 15:50:00
  Antecedent Dry Days ...... 8.0
  Report Time Step ......... 00:01:00
  Wet Time Step ............ 00:01:00
  Dry Time Step ............ 00:01:00
  Routing Time Step ........ 5.00 sec
  Variable Time Step ....... YES
  Maximum Trials ........... 8
  Number of Threads ........ 4
  Head Tolerance ........... 0.001500 m
  
  
  **************************        Volume         Depth
  Runoff Quantity Continuity     hectare-m            mm
  **************************     ---------       -------
  Total Precipitation ......         5.556        12.164
  Evaporation Loss .........         0.000         0.000
  Infiltration Loss ........         1.427         3.124
  Surface Runoff ...........         3.072         6.726
  Final Storage ............         1.058         2.316
  Continuity Error (%) .....        -0.016
  
  
  **************************        Volume        Volume
  Flow Routing Continuity        hectare-m      10^6 ltr
  **************************     ---------     ---------
  Dry Weather Inflow .......         0.616         6.165
  Wet Weather Inflow .......         3.071        30.709
  Groundwater Inflow .......         0.000         0.000
  RDII Inflow ..............         0.000         0.000
  External Inflow ..........         0.102         1.024
  External Outflow .........         2.127        21.275
  Flooding Loss ............         1.214        12.142
  Evaporation Loss .........         0.000         0.000
  Exfiltration Loss ........         0.000         0.000
  Initial Stored Volume ....         0.076         0.761
  Final Stored Volume ......         0.637         6.373
  Continuity Error (%) .....        -2.926
  
  
  *************************
  Highest Continuity Errors
  *************************
  Node HS02004842 (16.24%)
  Node JK-storage (-12.93%)
  Node YS02001884 (11.74%)
  Node YSB1171 (3.12%)
  Node HS02004817 (2.99%)
  
  
  ***************************
  Time-Step Critical Elements
  ***************************
  Link 3 (68.29%)
  Link WS02006252WS02006251 (25.04%)
  Link WS02006280WS02006229 (1.27%)
  
  
  ********************************
  Highest Flow Instability Indexes
  ********************************
  Link WS02006113WS02006111 (39)
  Link YS02163601YS02164001 (37)
  Link YS02001629YS02163301 (37)
  Link YS02163301YS02001633 (37)
  Link YS02001619YS02001622 (36)
  
  
  *************************
  Routing Time Step Summary
  *************************
  Minimum Time Step           :     0.37 sec
  Average Time Step           :     0.80 sec
  Maximum Time Step           :     5.00 sec
  Percent in Steady State     :    -0.00
  Average Iterations per Step :     4.38
  Percent Not Converging      :    19.50
  
  
  ***************************
  Subcatchment Runoff Summary
  ***************************
  
  ------------------------------------------------------------------------------------------------------------------------------
                            Total      Total      Total      Total     Imperv       Perv      Total       Total     Peak  Runoff
                           Precip      Runon       Evap      Infil     Runoff     Runoff     Runoff      Runoff   Runoff   Coeff
  Subcatchment                 mm         mm         mm         mm         mm         mm         mm    10^6 ltr      LPS
  ------------------------------------------------------------------------------------------------------------------------------
  sub0                      12.16       0.00       0.00       0.85      10.05       0.00      10.05        0.01     1.91   0.826
  sub1                      12.16       0.00       0.00       1.34       9.56       0.00       9.56        0.06    14.15   0.786
  sub2                      12.16       0.00       0.00       4.50       6.75       0.00       6.75        0.06    13.75   0.555
  sub3                      12.16       0.00       0.00       4.50       6.71       0.00       6.71        0.15    32.07   0.552
  sub4                      12.16       0.00       0.00       1.34       9.40       0.00       9.40        0.20    40.20   0.773
  sub5                      12.16       0.00       0.00       0.85       9.99       0.00       9.99        0.11    25.19   0.822
  sub7                      12.16       0.00       0.00       1.09       9.81       0.00       9.81        0.03     7.55   0.807
  sub8                      12.16       0.00       0.00       1.09       9.80       0.00       9.80        0.06    14.17   0.806
  sub9                      12.16       0.00       0.00       1.09       9.80       0.00       9.80        0.05    10.64   0.806
  sub10                     12.16       0.00       0.00       0.97       9.89       0.00       9.89        0.11    24.40   0.813
  sub11                     12.16       0.00       0.00       0.97       9.91       0.00       9.91        0.12    26.15   0.815
  sub12                     12.16       0.00       0.00       1.58       9.39       0.00       9.39        0.08    19.06   0.772
  sub14                     12.16       0.00       0.00       1.09       9.80       0.00       9.80        0.09    21.02   0.805
  sub15                     12.16       0.00       0.00       3.65       7.53       0.00       7.53        0.13    29.11   0.619
  sub16                     12.16       0.00       0.00       4.01       7.23       0.00       7.23        0.08    17.47   0.594
  sub17                     12.16       0.00       0.00       3.89       7.34       0.00       7.34        0.06    14.47   0.603
  sub22                     12.16       0.00       0.00       5.23       6.14       0.00       6.14        0.39    88.27   0.505
  sub23                     12.16       0.00       0.00       4.50       6.79       0.00       6.79        0.32    73.89   0.558
  sub60                     12.16       0.00       0.00       1.46       7.71       0.00       7.71        2.34   297.17   0.634
  sub61                     12.16       0.00       0.00       2.07       7.87       0.00       7.87        2.43   359.80   0.647
  sub62                     12.16       0.00       0.00       0.97       8.55       0.00       8.55        2.63   372.87   0.703
  sub63                     12.16       0.00       0.00       3.53       6.89       0.00       6.89        2.09   327.80   0.567
  sub64                     12.16       0.00       0.00       1.82       7.40       0.00       7.40        2.25   282.66   0.608
  sub65                     12.16       0.00       0.00       1.58       7.52       0.00       7.52        2.31   287.20   0.618
  sub66                     12.16       0.00       0.00       3.53       6.36       0.00       6.36        1.95   257.27   0.523
  sub67                     12.16       0.00       0.00       0.97       9.05       0.00       9.05        2.79   452.90   0.744
  sub68                     12.16       0.00       0.00       1.70       8.28       0.00       8.28        2.55   391.99   0.681
  sub69                     12.16       0.00       0.00       1.82       8.61       0.00       8.61        2.01   355.79   0.708
  sub70                     12.16       8.79       0.00       7.03      11.43       0.10      11.53        2.64   335.00   0.550
  sub71                     12.16       0.00       0.00       0.97       8.31       0.00       8.31        1.96   263.63   0.683
  sub72                     12.16       0.00       0.00       0.85       6.56       0.00       6.56        1.34   129.40   0.540
  sub73                     12.16      11.23       0.00       7.88      12.47       0.08      12.54        2.95   300.52   0.536
  sub74                     12.16       0.00       0.00       9.12       2.57       0.00       2.57        1.03   189.59   0.211
  
  
  ******************
  Node Depth Summary
  ******************
  
  ---------------------------------------------------------------------------------
                                 Average  Maximum  Maximum  Time of Max    Reported
                                   Depth    Depth      HGL   Occurrence   Max Depth
  Node                 Type       Meters   Meters   Meters  days hr:min      Meters
  ---------------------------------------------------------------------------------
  WS02001211           JUNCTION     0.68     0.75     5.59     0  00:51        0.75
  WS02001212           JUNCTION     0.40     0.47     5.53     0  03:08        0.47
  WS02001213           JUNCTION     0.63     0.74     5.50     0  03:08        0.74
  WS02003069           JUNCTION     0.45     0.59     5.18     0  03:07        0.59
  WS02003072           JUNCTION     0.52     0.65     5.02     0  03:08        0.65
  WS02003073           JUNCTION     0.31     0.40     4.47     0  03:08        0.40
  WS02003060           JUNCTION     0.40     0.53     5.46     0  03:07        0.53
  WS02003066           JUNCTION     0.24     0.33     5.88     0  03:06        0.33
  WS02003059           JUNCTION     0.69     0.80     5.49     0  03:07        0.80
  WS02003067           JUNCTION     0.58     0.75     6.07     0  03:06        0.75
  WS02004401           JUNCTION     0.69     0.98     6.98     0  03:04        0.98
  WS02004402           JUNCTION     0.72     1.00     6.96     0  03:04        0.99
  WS02004403           JUNCTION     0.74     1.00     6.93     0  03:04        1.00
  WS02004404           JUNCTION     0.81     1.06     6.91     0  03:04        1.06
  WS02004406           JUNCTION     0.82     1.04     6.87     0  03:04        1.03
  WS02004409           JUNCTION     0.51     0.76     6.53     0  03:05        0.76
  WS02004410           JUNCTION     0.52     0.76     6.48     0  03:05        0.76
  WS02004411           JUNCTION     0.54     0.77     6.45     0  03:05        0.77
  WS02004412           JUNCTION     0.55     0.76     6.40     0  03:05        0.76
  WS02004413           JUNCTION     0.71     0.92     6.39     0  03:06        0.92
  WS02004405           JUNCTION     0.81     1.05     6.90     0  03:04        1.05
  WS02006109           JUNCTION     0.77     1.11     7.73     0  02:59        1.10
  WS02006110           JUNCTION     0.76     1.03     7.61     0  02:59        1.01
  WS02006111           JUNCTION     0.22     0.37     7.07     0  03:02        0.36
  WS02006112           JUNCTION     0.86     1.21     7.09     0  03:03        1.20
  WS02006113           JUNCTION     0.35     0.51     7.40     0  03:03        0.51
  WS02006115           JUNCTION     0.58     0.90     7.03     0  03:03        0.90
  WS02006116           JUNCTION     0.66     0.97     7.01     0  03:03        0.97
  WS02006230           JUNCTION     0.74     1.17     7.92     0  03:02        1.17
  WS02006231           JUNCTION     0.50     0.83     7.95     0  03:02        0.82
  WS02006232           JUNCTION     0.63     0.95     7.99     0  03:02        0.94
  WS02006234           JUNCTION     0.54     0.86     8.02     0  03:02        0.86
  WS02006235           JUNCTION     0.57     0.88     8.05     0  02:59        0.87
  WS02006238           JUNCTION     0.60     0.91     8.05     0  02:58        0.90
  WS02006240           JUNCTION     0.48     0.79     8.09     0  03:02        0.79
  WS02006242           JUNCTION     0.52     0.84     8.11     0  03:02        0.84
  WS02006243           JUNCTION     0.39     0.72     8.14     0  03:03        0.72
  WS02006245           JUNCTION     0.36     0.68     8.16     0  03:05        0.68
  WS02006247           JUNCTION     0.37     0.68     8.18     0  03:08        0.68
  WS02006248           JUNCTION     0.32     0.62     8.20     0  03:09        0.62
  WS02006249           JUNCTION     0.35     0.63     8.23     0  03:10        0.63
  WS02006239           JUNCTION     0.55     0.86     8.07     0  03:02        0.85
  WS02006251           JUNCTION     0.33     0.67     8.34     0  03:10        0.66
  WS02006252           JUNCTION     0.27     0.59     8.83     0  03:09        0.59
  WS02006253           JUNCTION     0.36     0.69     8.34     0  03:10        0.69
  WS02006256           JUNCTION     1.10     1.22     8.15     0  02:59        1.22
  WS02004138           JUNCTION     0.16     0.19     7.44     0  00:50        0.19
  WS02004407           JUNCTION     0.23     0.33     6.64     0  03:04        0.33
  WS02006228           JUNCTION     0.78     1.17     7.83     0  03:01        1.16
  WS02006229           JUNCTION     0.76     1.18     7.88     0  03:02        1.18
  WS02006280           JUNCTION     0.08     0.19     8.46     0  03:02        0.19
  WS02006284           JUNCTION     0.38     0.55     8.95     0  03:02        0.55
  WS02006287           JUNCTION     0.11     0.28     9.24     0  03:01        0.28
  WSF200               JUNCTION     0.23     0.36     5.59     0  03:06        0.35
  HS02004901           JUNCTION     0.14     0.28    10.10     0  03:01        0.28
  HS02004881           JUNCTION     0.01     0.04     9.07     0  03:01        0.04
  HS02004876           JUNCTION     0.05     0.12     9.15     0  03:01        0.12
  HS02004870           JUNCTION     0.02     0.06     9.35     0  03:01        0.06
  HS02004862           JUNCTION     0.02     0.07     9.46     0  03:01        0.07
  HS02004856           JUNCTION     0.08     0.13     9.55     0  03:01        0.13
  HS02004852           JUNCTION     0.01     0.05     9.56     0  03:01        0.05
  HS02004848           JUNCTION     0.01     0.05     9.65     0  03:01        0.05
  HS02004842           JUNCTION     0.34     0.38     9.65     0  03:01        0.38
  HS02004837           JUNCTION     0.03     0.07     9.65     0  03:01        0.07
  HS02004830           JUNCTION     0.04     0.08     9.55     0  03:01        0.08
  HS02004824           JUNCTION     0.03     0.06     9.46     0  03:01        0.06
  HS02004817           JUNCTION     0.45     0.60     9.44     0  03:01        0.60
  HS02004807           JUNCTION     0.14     0.27     9.44     0  03:01        0.27
  HS02004802           JUNCTION     0.17     0.30     9.43     0  03:01        0.30
  HS02004799           JUNCTION     0.14     0.33     9.54     0  03:01        0.33
  HS02004792           JUNCTION     0.04     0.14     9.66     0  03:01        0.14
  HS02004788           JUNCTION     0.03     0.10    10.00     0  03:01        0.10
  HS02004785           JUNCTION     0.06     0.17    10.07     0  03:01        0.17
  HS02004777           JUNCTION     0.16     0.30    10.10     0  03:01        0.30
  HS02004770           JUNCTION     0.13     0.27    10.10     0  03:01        0.27
  HS02004480           JUNCTION     0.10     0.26     9.50     0  03:01        0.26
  HS02004479           JUNCTION     0.13     0.30     9.50     0  03:01        0.30
  HS02004478           JUNCTION     0.07     0.18     9.41     0  03:01        0.18
  YS02001745           JUNCTION     0.69     0.87     8.39     0  03:28        0.87
  YS02001748           JUNCTION     1.07     2.27     9.35     0  02:42        1.32
  YS02001751           JUNCTION     1.25     2.16     9.04     0  02:43        1.52
  YS02001754           JUNCTION     1.51     2.20     8.81     0  02:42        1.81
  YS02001762           JUNCTION     1.71     2.09     8.49     0  02:42        2.02
  YS02001765           JUNCTION     1.66     2.02     8.47     0  02:42        1.97
  YS02001767           JUNCTION     1.63     1.97     8.46     0  02:43        1.93
  YS02001770           JUNCTION     1.62     1.95     8.44     0  02:42        1.90
  YS02001774           JUNCTION     1.69     2.01     8.43     0  02:43        1.96
  YS02001779           JUNCTION     1.44     1.68     8.37     0  02:42        1.68
  YS02001882           JUNCTION     0.55     1.64     8.35     0  02:56        1.60
  YS02001884           JUNCTION     0.65     1.73     8.35     0  02:56        1.70
  YS02001759           JUNCTION     1.74     2.11     8.48     0  02:43        2.06
  YS02001887           JUNCTION     0.72     1.80     8.34     0  02:56        1.78
  YS02001890           JUNCTION     0.75     1.81     8.32     0  02:56        1.80
  YS02001898           JUNCTION     0.52     1.57     8.31     0  02:56        1.55
  YS02001901           JUNCTION     0.64     1.68     8.29     0  02:56        1.66
  YS02001904           JUNCTION     0.62     1.64     8.27     0  02:56        1.63
  YS02001907           JUNCTION     0.95     1.96     8.25     0  02:56        1.96
  YS02001910           JUNCTION     0.74     1.80     8.31     0  02:58        1.77
  YS02001915           JUNCTION     0.53     1.63     8.34     0  02:58        1.59
  YS02001918           JUNCTION     0.27     1.34     8.40     0  02:58        1.28
  YS02001619           JUNCTION     1.22     1.61     8.54     0  02:34        1.47
  YS02001629           JUNCTION     1.58     1.85     8.40     0  02:39        1.84
  YS02001641           JUNCTION     1.67     1.95     8.39     0  02:42        1.93
  YS02001644           JUNCTION     1.68     1.92     8.35     0  02:42        1.92
  YS02001652           JUNCTION     1.52     2.16     8.76     0  02:55        1.91
  YS02001655           JUNCTION     1.28     2.20     9.05     0  02:40        1.74
  YS02001920           JUNCTION     0.37     1.43     8.43     0  02:58        1.36
  YS02001923           JUNCTION     0.21     1.20     8.46     0  02:58        1.13
  YS02001926           JUNCTION     0.26     1.20     8.65     0  02:58        0.91
  YS02001929           JUNCTION     0.14     0.78     8.48     0  02:58        0.78
  YS02001658           JUNCTION     1.01     2.30     9.44     0  02:40        1.69
  YS02001661           JUNCTION     0.79     2.46     9.86     0  02:56        2.11
  YS02001664           JUNCTION     0.35     0.58     8.50     0  03:09        0.56
  YS02001622           JUNCTION     1.24     1.62     8.52     0  02:34        1.49
  YS02001633           JUNCTION     1.67     1.97     8.43     0  02:44        1.94
  YS02001649           JUNCTION     1.72     2.05     8.44     0  02:40        2.05
  YS02001757           JUNCTION     1.84     2.21     8.47     0  02:42        2.16
  YS02001895           JUNCTION     0.51     1.57     8.32     0  02:56        1.55
  YS02001625           JUNCTION     1.53     1.78     8.38     0  02:36        1.78
  YS02163301           JUNCTION     1.61     1.92     8.44     0  02:41        1.87
  YS02163601           JUNCTION     1.72     2.02     8.42     0  02:42        1.98
  YS02164001           JUNCTION     1.66     1.95     8.41     0  02:42        1.91
  YS02001647           JUNCTION     1.51     1.82     8.43     0  02:45        1.79
  YSB1154              JUNCTION     0.27     0.45     9.51     0  03:01        0.45
  YSB6556              JUNCTION     0.17     0.34     9.51     0  03:01        0.34
  YSB1174              JUNCTION     0.22     0.40     9.51     0  03:01        0.40
  YSB1171              JUNCTION     0.42     0.60     9.51     0  03:01        0.60
  YS02006553           JUNCTION     0.95     1.96     8.25     0  03:02        1.96
  YS02006561           JUNCTION     0.31     1.41     8.07     0  02:54        1.07
  YS02006556           JUNCTION     0.92     1.96     8.27     0  02:54        1.91
  YS02006558           JUNCTION     0.96     2.03     8.30     0  02:54        1.95
  YS02001783           JUNCTION     0.55     1.75     7.89     0  02:54        1.46
  YS02001784           JUNCTION     0.56     1.68     7.74     0  02:54        1.40
  YS02001786           JUNCTION     0.51     1.62     7.65     0  02:54        1.25
  YS02001788           JUNCTION     0.44     1.81     7.78     0  02:54        1.12
  YS02001790           JUNCTION     0.55     1.96     7.60     0  02:53        1.29
  YS02001791           JUNCTION     0.51     1.60     7.07     0  02:53        1.27
  YS02001793           JUNCTION     0.68     1.82     6.65     0  02:55        1.80
  WS02004139           JUNCTION     0.62     0.70     5.61     0  00:50        0.70
  WSC                  OUTFALL      0.31     0.40     1.07     0  03:08        0.40
  3                    OUTFALL      0.13     0.21     6.21     0  02:59        0.21
  4                    OUTFALL      0.01     0.13     7.13     0  03:10        0.13
  5                    OUTFALL      0.00     0.00     5.00     0  00:00        0.00
  JK-storage           STORAGE      2.74     5.80     6.60     0  02:54        5.80
  CC-storage           STORAGE      1.06     1.37     8.37     0  03:30        1.37
  XR-storage           STORAGE      6.60     7.72     5.72     0  03:02        7.72
  
  
  *******************
  Node Inflow Summary
  *******************
  
  -------------------------------------------------------------------------------------------------
                                  Maximum  Maximum                  Lateral       Total        Flow
                                  Lateral    Total  Time of Max      Inflow      Inflow     Balance
                                   Inflow   Inflow   Occurrence      Volume      Volume       Error
  Node                 Type           LPS      LPS  days hr:min    10^6 ltr    10^6 ltr     Percent
  -------------------------------------------------------------------------------------------------
  WS02001211           JUNCTION      7.35   382.33     0  00:50       0.207        7.34       0.435
  WS02001212           JUNCTION      0.00   378.95     0  00:51           0         7.3       0.224
  WS02001213           JUNCTION      0.00   378.38     0  00:51           0        7.29       0.254
  WS02003069           JUNCTION      0.32   973.80     0  03:07     0.00902        15.3       0.138
  WS02003072           JUNCTION      0.00   973.51     0  03:07           0        15.3       0.180
  WS02003073           JUNCTION      1.82   975.22     0  03:08      0.0514        15.3       0.194
  WS02003060           JUNCTION     16.53   973.96     0  03:06       0.466        15.3       0.132
  WS02003066           JUNCTION      0.00   666.39     0  03:06           0        7.61       0.042
  WS02003059           JUNCTION      0.00   377.00     0  00:52           0        7.27       0.468
  WS02003067           JUNCTION      0.00   666.27     0  03:06           0        7.62       0.094
  WS02004401           JUNCTION      0.00   672.71     0  03:04           0         7.8       0.213
  WS02004402           JUNCTION      0.00   671.37     0  03:04           0        7.78       0.206
  WS02004403           JUNCTION      0.00   668.72     0  03:04           0        7.76       0.192
  WS02004404           JUNCTION      0.16   669.12     0  03:04     0.00457        7.75       0.150
  WS02004406           JUNCTION      0.00   668.87     0  03:04           0        7.73       0.367
  WS02004409           JUNCTION      0.00   667.98     0  03:04           0        7.69       0.136
  WS02004410           JUNCTION      0.00   667.56     0  03:05           0        7.68       0.161
  WS02004411           JUNCTION      0.00   667.14     0  03:05           0        7.67       0.172
  WS02004412           JUNCTION      0.00   666.72     0  03:05           0        7.66       0.196
  WS02004413           JUNCTION      0.00   666.67     0  03:05           0        7.64       0.304
  WS02004405           JUNCTION      0.04   668.93     0  03:04     0.00107        7.74       0.225
  WS02006109           JUNCTION      1.23   658.47     0  03:02      0.0347        7.83       0.186
  WS02006110           JUNCTION      0.00   658.46     0  03:02           0        7.81       0.211
  WS02006111           JUNCTION      0.00   691.30     0  03:03           0        7.79       0.037
  WS02006112           JUNCTION     14.47   675.21     0  03:03      0.0629        7.85       0.311
  WS02006113           JUNCTION      0.00   659.02     0  03:02           0        7.79       0.080
  WS02006115           JUNCTION      0.00   674.90     0  03:03           0        7.82       0.178
  WS02006116           JUNCTION      0.00   671.71     0  03:03           0        7.81       0.175
  WS02006230           JUNCTION     10.28   376.99     0  07:05        0.29        5.93       0.164
  WS02006231           JUNCTION      0.00   369.53     0  07:04           0        5.65       0.125
  WS02006232           JUNCTION      0.00   370.88     0  07:04           0        5.66       0.220
  WS02006234           JUNCTION      0.00   372.58     0  07:03           0        5.67       0.073
  WS02006235           JUNCTION      0.00   374.66     0  07:02           0        5.71       0.146
  WS02006238           JUNCTION      0.00   294.09     0  03:10           0        3.29       0.147
  WS02006240           JUNCTION      0.00   320.52     0  07:01           0        3.26       0.163
  WS02006242           JUNCTION      0.00   332.37     0  07:01           0        3.25       0.182
  WS02006243           JUNCTION      0.00   336.92     0  07:01           0        3.23      -0.227
  WS02006245           JUNCTION      0.00   340.40     0  07:01           0        3.23       0.113
  WS02006247           JUNCTION      0.00   345.28     0  07:00           0        3.23      -0.007
  WS02006248           JUNCTION      0.00   350.35     0  07:00           0        3.23      -0.082
  WS02006249           JUNCTION      0.00   441.41     0  03:10           0        3.47       0.132
  WS02006239           JUNCTION      0.00   306.18     0  07:01           0        3.27       0.173
  WS02006251           JUNCTION      0.08   441.30     0  03:10     0.00217        3.48      -0.014
  WS02006252           JUNCTION      0.00   399.87     0  07:00           0         3.1       0.003
  WS02006253           JUNCTION      1.91    81.00     0  03:01     0.00814       0.378      -0.050
  WS02006256           JUNCTION      0.00   600.00     0  02:07           0        8.24       0.035
  WS02004138           JUNCTION      0.00   379.85     0  00:50           0        7.15       0.045
  WS02004407           JUNCTION      0.00   668.74     0  03:04           0         7.7       0.063
  WS02006228           JUNCTION      0.00   657.33     0  03:02           0         7.8       0.139
  WS02006229           JUNCTION      0.00   655.62     0  03:02           0        7.81       0.120
  WS02006280           JUNCTION      0.00   375.54     0  03:02           0        1.89       0.004
  WS02006284           JUNCTION      0.10   375.54     0  03:02      0.0027        1.89       0.064
  WS02006287           JUNCTION      0.00   375.27     0  03:01           0        1.89       0.037
  WSF200               JUNCTION      0.00   666.48     0  03:06           0        7.61       0.036
  HS02004901           JUNCTION     17.47    17.47     0  03:01      0.0757      0.0759       2.380
  HS02004881           JUNCTION      7.55    79.19     0  03:01      0.0331       0.357       0.084
  HS02004876           JUNCTION     14.15    72.10     0  03:01      0.0636       0.324       0.171
  HS02004870           JUNCTION     14.17    58.27     0  03:01      0.0626       0.261       0.043
  HS02004862           JUNCTION     13.95    44.46     0  03:01      0.0685       0.198       0.089
  HS02004856           JUNCTION     10.64    30.79     0  03:01      0.0471       0.131       1.116
  HS02004852           JUNCTION      0.00    20.44     0  03:01           0       0.084       0.069
  HS02004848           JUNCTION     32.07    32.07     0  03:01       0.151       0.151       0.033
  HS02004842           JUNCTION      0.00    11.42     0  03:01           0      0.0801      19.391
  HS02004837           JUNCTION     30.75    41.91     0  03:01       0.288       0.355       0.228
  HS02004830           JUNCTION      0.15    41.84     0  03:01     0.00423       0.346       0.358
  HS02004824           JUNCTION     40.25    81.79     0  03:01       0.197       0.542       0.100
  HS02004817           JUNCTION      0.60    82.18     0  03:01      0.0169       0.558       3.078
  HS02004807           JUNCTION     26.15   107.24     0  03:01       0.115       0.657       0.656
  HS02004802           JUNCTION      0.00   106.49     0  03:01           0       0.653       0.620
  HS02004799           JUNCTION     21.02   227.51     0  03:01      0.0932        1.06       0.236
  HS02004792           JUNCTION     88.55   207.32     0  03:01       0.396       0.966       0.043
  HS02004788           JUNCTION     30.78   119.37     0  03:01       0.177       0.571       0.069
  HS02004785           JUNCTION      0.15    89.79     0  03:01     0.00423       0.396       0.125
  HS02004777           JUNCTION      0.03    90.24     0  03:01    0.000846       0.397       1.326
  HS02004770           JUNCTION     73.89    90.93     0  03:01       0.324       0.398       0.787
  HS02004480           JUNCTION      0.00   269.27     0  03:01           0        1.25       0.099
  HS02004479           JUNCTION      0.00    42.82     0  03:02           0       0.204       0.360
  HS02004478           JUNCTION      0.00   375.17     0  03:01           0        1.89       0.018
  YS02001745           JUNCTION    297.18   368.32     0  02:42        2.34        2.34       0.483
  YS02001748           JUNCTION      0.04   577.84     0  02:42     0.00127        2.33       0.993
  YS02001751           JUNCTION      0.01   310.16     0  03:01     0.00031         2.3       1.045
  YS02001754           JUNCTION      0.26   310.38     0  03:01     0.00733        2.29       1.090
  YS02001762           JUNCTION      0.00   335.28     0  02:55           0        1.78       1.196
  YS02001765           JUNCTION      0.00   335.26     0  02:55           0        1.78       1.386
  YS02001767           JUNCTION      0.54   335.41     0  02:55      0.0151         1.8       2.022
  YS02001770           JUNCTION    373.02   373.02     0  03:01        2.63        2.66       1.204
  YS02001774           JUNCTION      0.00   262.01     0  03:32           0        0.87       2.984
  YS02001779           JUNCTION      0.01   262.37     0  03:32    0.000141       0.839       1.884
  YS02001882           JUNCTION      0.00    12.39     0  02:29           0      0.0163      15.809
  YS02001884           JUNCTION      0.00    21.03     0  02:50           0       0.052      13.307
  YS02001759           JUNCTION    359.84   662.16     0  02:55        2.43        4.15       0.556
  YS02001887           JUNCTION    453.35   453.56     0  03:01         2.8        2.83       0.302
  YS02001890           JUNCTION      0.00   453.41     0  03:01           0        2.79       0.330
  YS02001898           JUNCTION      0.00   453.52     0  03:01           0        2.77       0.117
  YS02001901           JUNCTION      0.00   453.56     0  03:01           0        2.77       0.249
  YS02001904           JUNCTION      0.00   453.60     0  03:01           0        2.77       0.227
  YS02001907           JUNCTION      0.00   968.93     0  02:59           0        6.12       0.394
  YS02001910           JUNCTION      0.00   529.61     0  02:59           0        3.37       0.351
  YS02001915           JUNCTION    263.65   529.50     0  02:59        1.96         3.4       0.177
  YS02001918           JUNCTION      0.00   273.94     0  02:59           0        1.45       0.136
  YS02001619           JUNCTION    257.27   257.27     0  03:01        1.95        1.95       0.634
  YS02001629           JUNCTION      0.00   207.17     0  02:50           0        1.63       1.795
  YS02001641           JUNCTION      0.00   438.10     0  02:50           0        3.84       0.553
  YS02001644           JUNCTION    282.70   973.20     0  03:28        2.25        8.81       0.298
  YS02001652           JUNCTION      0.00   377.89     0  03:01           0        2.04       1.144
  YS02001655           JUNCTION      0.15   377.65     0  03:01     0.00434        2.06       1.237
  YS02001920           JUNCTION      2.87   273.71     0  02:59      0.0809        1.45       0.201
  YS02001923           JUNCTION      0.04   304.88     0  02:58     0.00106        1.36       0.035
  YS02001926           JUNCTION      0.05   289.63     0  02:59     0.00147        1.34       0.241
  YS02001929           JUNCTION    129.40   191.21     0  02:57        1.34        1.34       0.041
  YS02001658           JUNCTION      0.00   580.10     0  02:40           0        2.08       1.112
  YS02001661           JUNCTION      0.00   690.42     0  02:54           0        2.74      -0.072
  YS02001664           JUNCTION    327.80   356.68     0  02:53        2.09        2.75       0.253
  YS02001622           JUNCTION      0.00   257.31     0  03:01           0        1.94       1.670
  YS02001633           JUNCTION    287.40   438.15     0  02:50        2.32         3.9       0.825
  YS02001649           JUNCTION      0.00   936.23     0  02:50           0        5.16       0.727
  YS02001757           JUNCTION      0.00  1774.94     0  02:51           0        8.86       1.053
  YS02001895           JUNCTION      0.00   453.44     0  03:01           0        2.78       0.177
  YS02001625           JUNCTION      0.00   257.36     0  03:01           0         1.9       2.063
  YS02163301           JUNCTION      0.00   206.88     0  02:50           0        1.61       1.500
  YS02163601           JUNCTION      0.11   437.98     0  02:50      0.0031        3.87       0.784
  YS02164001           JUNCTION      0.00   437.70     0  02:49           0        3.85       0.528
  YS02001647           JUNCTION      0.00   666.89     0  02:50           0        4.26       0.671
  YSB1154              JUNCTION     25.19    25.19     0  03:01       0.113       0.114       1.286
  YSB6556              JUNCTION      0.00    24.91     0  03:01           0       0.115       1.100
  YSB1174              JUNCTION     19.06    19.06     0  03:01      0.0821      0.0827       1.581
  YSB1171              JUNCTION      0.00    43.19     0  03:01           0       0.203       3.220
  YS02006553           JUNCTION      0.00   667.69     0  03:16           0        5.94       0.259
  YS02006561           JUNCTION      0.00  1006.66     0  02:54           0        8.46       0.005
  YS02006556           JUNCTION      0.00   667.85     0  03:16           0        5.94       0.190
  YS02006558           JUNCTION    392.87  1006.23     0  02:54        2.57        8.49       0.066
  YS02001783           JUNCTION      0.00   994.73     0  02:53           0        8.46       0.029
  YS02001784           JUNCTION      1.06   995.56     0  02:53      0.0299        8.48       0.045
  YS02001786           JUNCTION      0.06   995.70     0  02:53     0.00159        8.48       0.040
  YS02001788           JUNCTION      0.07   978.54     0  02:54       0.002        8.48       0.024
  YS02001790           JUNCTION      0.15   969.28     0  02:53     0.00437        8.48       0.032
  YS02001791           JUNCTION      0.00  1010.03     0  02:52           0        8.48       0.012
  YS02001793           JUNCTION      0.00   965.51     0  03:00           0        8.48       0.003
  WS02004139           JUNCTION      0.32   379.80     0  00:50     0.00905        7.16       0.424
  WSC                  OUTFALL       0.00   975.03     0  03:08           0        15.3       0.000
  3                    OUTFALL       0.00   533.52     0  02:59           0        5.77       0.000
  4                    OUTFALL       0.00   159.07     0  03:10           0       0.232       0.000
  5                    OUTFALL       0.00     0.00     0  00:00           0           0       0.000 ltr
  JK-storage           STORAGE       0.00   965.51     0  03:00           0        8.63     -11.450
  CC-storage           STORAGE       0.00  1774.93     0  02:51           0         7.1       0.924
  XR-storage           STORAGE     690.11   690.11     0  03:01        9.61        10.2      -0.000
  
  
  **********************
  Node Surcharge Summary
  **********************
  
  Surcharging occurs when water rises above the top of the highest conduit.
  ---------------------------------------------------------------------
                                               Max. Height   Min. Depth
                                   Hours       Above Crown    Below Rim
  Node                 Type      Surcharged         Meters       Meters
  ---------------------------------------------------------------------
  WS02004403           JUNCTION        0.01          0.003        2.027
  WS02004404           JUNCTION        0.72          0.064        2.716
  WS02004406           JUNCTION        0.44          0.035        2.415
  WS02004405           JUNCTION        0.60          0.051        2.749
  WS02006109           JUNCTION        1.71          0.289        1.531
  WS02006110           JUNCTION        1.15          0.115        1.735
  WS02006112           JUNCTION        1.28          0.207        1.473
  WS02006230           JUNCTION        0.66          0.093        1.477
  WS02006231           JUNCTION        0.84          0.119        1.411
  WS02006232           JUNCTION        1.54          0.247        1.233
  WS02006234           JUNCTION        1.16          0.138        1.102
  WS02006235           JUNCTION        1.28          0.174        1.116
  WS02006238           JUNCTION        1.34          0.190        1.240
  WS02006240           JUNCTION        0.95          0.083        1.307
  WS02006242           JUNCTION        1.14          0.114        0.706
  WS02006243           JUNCTION        0.11          0.010        0.760
  WS02006239           JUNCTION        1.14          0.117        1.173
  WS02006252           JUNCTION        0.38          0.191        0.909
  WS02006228           JUNCTION        1.69          0.345        1.855
  YS02001748           JUNCTION        5.05          1.190        0.000
  YS02001751           JUNCTION        5.24          1.157        0.043
  YS02001754           JUNCTION        5.40          1.150        0.000
  YS02001762           JUNCTION        5.64          1.086        0.064
  YS02001765           JUNCTION        5.61          1.015        0.085
  YS02001767           JUNCTION        5.58          0.972        0.058
  YS02001770           JUNCTION        5.56          0.920        0.000
  YS02001774           JUNCTION        5.63          1.007        0.043
  YS02001779           JUNCTION        5.39          0.680        0.000
  YS02001882           JUNCTION        0.72          0.637        0.193
  YS02001884           JUNCTION        0.76          0.672        0.198
  YS02001759           JUNCTION        5.66          1.112        0.098
  YS02001887           JUNCTION        0.87          0.753        0.197
  YS02001890           JUNCTION        0.90          0.760        0.000
  YS02001898           JUNCTION        0.66          0.542        0.198
  YS02001901           JUNCTION        0.82          0.678        0.192
  YS02001904           JUNCTION        0.78          0.637        0.213
  YS02001907           JUNCTION        1.48          0.950        0.000
  YS02001910           JUNCTION        0.96          0.799        0.301
  YS02001915           JUNCTION        0.69          0.625        0.375
  YS02001918           JUNCTION        0.44          0.336        0.474
  YS02001619           JUNCTION        5.23          0.610        0.000
  YS02001629           JUNCTION        5.23          0.470        0.000
  YS02001641           JUNCTION        5.62          0.949        0.151
  YS02001644           JUNCTION        5.62          0.920        0.000
  YS02001652           JUNCTION        5.41          1.130        0.000
  YS02001655           JUNCTION        5.25          1.200        0.000
  YS02001920           JUNCTION        0.48          0.427        0.713
  YS02001926           JUNCTION        0.01          0.201        0.699
  YS02001658           JUNCTION        5.08          1.300        0.000
  YS02001661           JUNCTION        0.23          1.390        0.000
  YS02001622           JUNCTION        5.26          0.620        0.000
  YS02001633           JUNCTION        5.60          0.952        0.108
  YS02001649           JUNCTION        5.64          1.050        0.000
  YS02001757           JUNCTION        5.74          1.210        0.000
  YS02001895           JUNCTION        0.67          0.570        0.180
  YS02001625           JUNCTION        5.44          0.780        0.000
  YS02163301           JUNCTION        5.58          0.918        0.112
  YS02163601           JUNCTION        5.64          1.018        0.062
  YS02164001           JUNCTION        5.61          0.948        0.152
  YS02001647           JUNCTION        5.42          0.818        0.082
  YS02006553           JUNCTION        1.53          0.964        0.226
  YS02006561           JUNCTION        0.56          0.607        0.543
  YS02006556           JUNCTION        1.20          0.923        0.427
  YS02006558           JUNCTION        1.16          0.929        0.471
  YS02001783           JUNCTION        1.12          0.953        0.647
  YS02001784           JUNCTION        1.11          0.875        0.615
  YS02001786           JUNCTION        1.01          0.824        0.606
  YS02001788           JUNCTION        0.99          1.008        0.472
  YS02001790           JUNCTION        1.89          1.157        0.000
  YS02001791           JUNCTION        1.92          0.799        1.121
  YS02001793           JUNCTION        1.99          0.820        1.780
  
  
  *********************
  Node Flooding Summary
  *********************
  
  Flooding refers to all water that overflows a node, whether it ponds or not.
  --------------------------------------------------------------------------
                                                             Total   Maximum
                                 Maximum   Time of Max       Flood    Ponded
                        Hours       Rate    Occurrence      Volume     Depth
  Node                 Flooded       LPS   days hr:min    10^6 ltr    Meters
  --------------------------------------------------------------------------
  YS02001748              0.01    215.21      0  02:43       0.000     0.000
  YS02001754              0.01     21.46      0  02:42       0.000     0.000
  YS02001770              0.01      5.87      0  02:43       0.000     0.000
  YS02001779              2.88    262.27      0  03:32       0.818     0.000
  YS02001890              0.01      5.34      0  02:56       0.000     0.000
  YS02001907              0.32    385.84      0  02:59       0.170     0.000
  YS02001619              0.01     18.26      0  02:40       0.000     0.000
  YS02001629              0.01     30.66      0  02:40       0.000     0.000
  YS02001644              4.80    973.00      0  03:28       7.266     0.000
  YS02001652              0.01     22.91      0  03:05       0.000     0.000
  YS02001655              0.01     23.86      0  03:06       0.000     0.000
  YS02001658              0.01    188.59      0  02:40       0.000     0.000
  YS02001661              0.01    182.67      0  03:05       0.002     0.000
  YS02001622              0.01     27.30      0  02:34       0.000     0.000
  YS02001649              0.10     51.00      0  03:01       0.006     0.000
  YS02001757              0.01     20.43      0  02:43       0.000     0.000
  YS02001625              0.83    168.50      0  03:01       0.235     0.000
  YS02001790              0.01     71.33      0  02:53       0.000     0.000
  JK-storage              1.57    962.05      0  03:10       1.511     0.000
  XR-storage              4.73    396.90      0  03:02       2.133     0.000
  
  
  **********************
  Storage Volume Summary
  **********************
  
  --------------------------------------------------------------------------------------------------
                         Average     Avg  Evap Exfil       Maximum     Max    Time of Max    Maximum
                          Volume    Pcnt  Pcnt  Pcnt        Volume    Pcnt     Occurrence    Outflow
  Storage Unit           1000 m3    Full  Loss  Loss       1000 m3    Full    days hr:min        LPS
  --------------------------------------------------------------------------------------------------
  JK-storage               0.138      47     0     0         0.291     100       0  02:54     600.00
  CC-storage               2.942      19     0     0         3.825      24       0  03:30     399.87
  XR-storage               0.792      86     0     0         0.926     100       0  03:02     379.85
  
  
  ***********************
  Outfall Loading Summary
  ***********************
  
  -----------------------------------------------------------
                         Flow       Avg       Max       Total
                         Freq      Flow      Flow      Volume
  Outfall Node           Pcnt       LPS       LPS    10^6 ltr
  -----------------------------------------------------------
  WSC                  100.00    623.60    975.03      15.269
  3                     94.35    292.80    533.52       5.774
  4                     22.58     50.14    159.07       0.232
  5                      0.00      0.00      0.00       0.000
  -----------------------------------------------------------
  System                54.23    966.55   1560.35      21.274
  
  
  ********************
  Link Flow Summary
  ********************
  
  -----------------------------------------------------------------------------
                                 Maximum  Time of Max   Maximum    Max/    Max/
                                  |Flow|   Occurrence   |Veloc|    Full    Full
  Link                 Type          LPS  days hr:min     m/sec    Flow   Depth
  -----------------------------------------------------------------------------
  WS02003066WSF200     CONDUIT    666.48     0  03:06      2.81    0.11    0.26
  WS02006287WS02006284 CONDUIT    375.44     0  03:02      1.98    0.17    0.29
  WS02006284WS02006280 CONDUIT    375.54     0  03:02      2.22    0.16    0.27
  WS02006280WS02006229 CONDUIT    375.58     0  03:02      3.58    0.08    0.19
  WS02006229WS02006228 CONDUIT    657.33     0  03:02      1.31    2.18    1.00
  WS02006256WS02006235 CONDUIT    158.12     0  00:13      2.30    1.67    1.00
  WS02006253WS02006251 CONDUIT     79.76     0  03:00      0.46    0.24    0.96
  WS02006252WS02006251 CONDUIT    399.80     0  07:00      3.18    1.47    1.00
  WS02006251WS02006249 CONDUIT    441.41     0  03:10      1.19    1.27    0.92
  WS02006249WS02006248 CONDUIT    350.35     0  07:00      1.16    1.92    0.87
  WS02006248WS02006247 CONDUIT    345.28     0  07:00      1.13    0.75    0.92
  WS02006247WS02006245 CONDUIT    340.40     0  07:01      1.09    2.70    0.96
  WS02006245WS02006243 CONDUIT    336.92     0  07:01      1.10    1.00    0.99
  WS02006243WS02006242 CONDUIT    332.37     0  07:01      1.00    0.71    1.00
  WS02006242WS02006240 CONDUIT    320.52     0  07:01      0.94    1.27    1.00
  WS02006240WS02006239 CONDUIT    306.18     0  07:01      0.98    0.96    1.00
  WS02006239WS02006238 CONDUIT    294.09     0  03:10      0.87    0.94    1.00
  WS02006238WS02006235 CONDUIT    293.96     0  03:10      0.91    0.66    1.00
  WS02006235WS02006234 CONDUIT    372.58     0  07:03      1.05    3.93    1.00
  WS02006234WS02006232 CONDUIT    370.88     0  07:04      1.02    0.75    1.00
  WS02006232WS02006231 CONDUIT    369.53     0  07:04      1.04    0.77    1.00
  WS02006231WS02006230 CONDUIT    366.71     0  07:05      1.36    5.56    1.00
  WS02006230WS02006229 CONDUIT    374.94     0  07:05      0.97    8.34    1.00
  WS02006228WS02006109 CONDUIT    657.24     0  03:02      1.31    2.87    1.00
  WS02006116WS02004401 CONDUIT    672.71     0  03:04      0.86    0.93    0.97
  WS02006115WS02006116 CONDUIT    671.71     0  03:03      0.90    0.86    0.90
  WS02006113WS02006111 CONDUIT    691.30     0  03:03      2.60    0.83    0.54
  WS02006112WS02006115 CONDUIT    674.90     0  03:03      0.88    0.40    0.94
  WS02006111WS02006112 CONDUIT    664.96     0  03:03      1.72    0.32    0.72
  WS02006110WS02006113 CONDUIT    659.02     0  03:02      1.50    0.60    0.82
  WS02006109WS02006110 CONDUIT    658.46     0  03:02      1.31    1.27    1.00
  WS02004411WS02004412 CONDUIT    666.72     0  03:05      1.03    0.95    0.77
  WS02004401WS02004402 CONDUIT    671.37     0  03:04      0.86    0.81    0.99
  WS02004413WS02003067 CONDUIT    666.27     0  03:06      1.25    0.29    0.64
  WS02004412WS02004413 CONDUIT    666.67     0  03:05      0.95    0.45    0.84
  WS02004410WS02004411 CONDUIT    667.14     0  03:05      1.04    0.91    0.76
  WS02004409WS02004410 CONDUIT    667.56     0  03:05      1.04    0.86    0.76
  WS02004407WS02004409 CONDUIT    667.98     0  03:04      1.53    0.24    0.54
  WS02004406WS02004407 CONDUIT    668.74     0  03:04      1.20    0.30    0.67
  WS02004405WS02004406 CONDUIT    668.87     0  03:04      0.85    1.32    1.00
  WS02004404WS02004405 CONDUIT    668.89     0  03:04      0.85    6.55    1.00
  WS02004403WS02004404 CONDUIT    668.95     0  03:04      0.85    0.48    1.00
  WS02004402WS02004403 CONDUIT    668.72     0  03:04      0.85    0.96    1.00
  WS02004139WS02001211 CONDUIT    374.98     0  00:50      0.57    0.47    0.56
  WS02004138WS02004139 CONDUIT    379.48     0  00:50      2.39    0.08    0.42
  WS02003067WS02003066 CONDUIT    666.39     0  03:06      1.36    0.21    0.45
  WS02001213WS02003059 CONDUIT    377.00     0  00:52      0.68    0.62    0.76
  WS02001212WS02001213 CONDUIT    378.38     0  00:51      1.31    0.58    0.44
  WS02001211WS02001212 CONDUIT    378.95     0  00:51      0.77    0.29    0.60
  WS02003072WS02003073 CONDUIT    973.39     0  03:08      1.75    2.10    0.49
  WS02003069WS02003072 CONDUIT    973.51     0  03:07      1.64    0.47    0.52
  WS02003060WS02003069 CONDUIT    973.48     0  03:07      1.88    0.38    0.47
  WS02003059WS02003060 CONDUIT    375.10     0  00:53      0.93    0.24    0.66
  HS02004901HS02004770 CONDUIT     17.70     0  03:01      0.07    0.07    0.39
  HS02004876HS02004881 CONDUIT     71.90     0  03:01      0.92    0.76    0.11
  HS02004870HS02004876 CONDUIT     58.03     0  03:01      0.63    0.04    0.13
  HS02004842HS02004848 CONDUIT     11.42     0  03:01      0.05    0.01    0.30
  HS02004837HS02004842 CONDUIT     11.94     0  03:02      0.42    0.01    0.32
  HS02004830HS02004837 CONDUIT     41.69     0  03:01      0.56    0.04    0.11
  HS02004824HS02004830 CONDUIT     41.67     0  03:01      0.58    0.05    0.10
  HS02004817HS02004824 CONDUIT     81.58     0  03:01      0.25    0.04    0.47
  HS02004770HS02004777 CONDUIT     90.21     0  03:01      0.32    0.16    0.41
  HS02004799HS02004480 CONDUIT    226.97     0  03:01      0.78    0.29    0.42
  HS02004792HS02004799 CONDUIT    206.60     0  03:01      0.88    0.13    0.33
  HS02004788HS02004792 CONDUIT    118.94     0  03:01      1.01    0.08    0.17
  HS02004785HS02004788 CONDUIT     89.52     0  03:02      0.66    0.67    0.19
  HS02004777HS02004785 CONDUIT     89.64     0  03:01      0.38    0.11    0.33
  HS02004480HS02004478 CONDUIT    269.12     0  03:01      1.20    1.13    0.32
  HS02004479HS02004480 CONDUIT     44.17     0  03:02      0.23    0.04    0.40
  HS02004862HS02004870 CONDUIT     44.23     0  03:01      0.64    0.05    0.10
  HS02004848HS02004852 CONDUIT     20.44     0  03:01      0.44    0.02    0.07
  HS02004856HS02004862 CONDUIT     30.56     0  03:01      0.47    0.03    0.09
  HS02004852HS02004856 CONDUIT     20.26     0  03:01      0.24    0.02    0.12
  HS02004802HS02004478 CONDUIT    106.59     0  03:02      0.45    0.09    0.35
  HS02004478WS02006287 CONDUIT    375.27     0  03:01      1.68    0.11    0.25
  HS02004817HS02004807 CONDUIT     82.18     0  03:01      0.19    0.05    0.62
  HS02004807HS02004802 CONDUIT    106.49     0  03:01      0.38    0.20    0.40
  YS02001759YS02001757 CONDUIT    661.91     0  02:55      0.84    0.47    1.00
  YS02001762YS02001759 CONDUIT    335.41     0  02:55      0.43    0.39    1.00
  YS02001765YS02001762 CONDUIT    335.28     0  02:55      0.43    0.31    1.00
  YS02001770YS02001767 CONDUIT    334.88     0  02:55      0.43    1.33    1.00
  YS02001774YS02001770 CONDUIT    262.01     0  03:32      0.33    0.17    1.00
  YS02001779YS02001774 CONDUIT    262.36     0  03:32      0.33    0.13    1.00
  YS02001649YS02001757 CONDUIT    935.84     0  02:50      1.19    0.57    1.00
  YS02001767YS02001765 CONDUIT    335.26     0  02:55      0.43    0.42    1.00
  YS02006561YS02001783 CONDUIT    994.73     0  02:53      2.24    0.52    1.00
  YS02001783YS02001784 CONDUIT    994.50     0  02:53      1.98    1.37    1.00
  YS02001784YS02001785 CONDUIT    995.65     0  02:53      2.02    2.32    1.00
  YS02001788YS02001790 CONDUIT    969.13     0  02:53      2.50    0.71    1.00
  YS02001790YS02001791 CONDUIT   1010.03     0  02:52      3.11    1.10    1.00
  YS02001791YS02001793 CONDUIT    965.51     0  03:00      6.04    0.41    1.00
  YS02001910YS02001907 CONDUIT    529.69     0  02:59      0.67    0.30    1.00
  YS02001786YS02001788 CONDUIT    978.47     0  02:54      2.35    1.89    1.00
  YS02001915YS02001910 CONDUIT    529.61     0  02:59      0.67    0.26    1.00
  YS02001918YS02001915 CONDUIT    275.23     0  02:59      0.44    0.15    1.00
  YS02001923YS02001920 CONDUIT    270.84     0  02:59      0.69    0.12    1.00
  YS02001926YS02001923 CONDUIT    304.85     0  02:58      0.79    0.44    0.95
  YS02001929YS02001926 CONDUIT    289.58     0  02:59      0.85    0.14    0.87
  YS02001920YS02001918 CONDUIT    273.94     0  02:59      0.67    0.26    1.00
  YS02001629YS02163301 CONDUIT    206.88     0  02:50      0.26    0.25    1.00
  YS02001619YS02001622 CONDUIT    257.31     0  03:01      0.61    0.38    1.00
  YS02001622YS02001625 CONDUIT    257.36     0  03:01      0.33    0.14    1.00
  YS02001625YS02001629 CONDUIT    207.17     0  02:50      0.26    0.10    1.00
  YS02163301YS02001633 CONDUIT    206.74     0  02:49      0.26    0.19    1.00
  YS02163601YS02164001 CONDUIT    437.70     0  02:49      0.56    0.39    1.00
  YS02164001YS02001641 CONDUIT    438.10     0  02:50      0.56    0.60    1.00
  YS02001641YS02001644 CONDUIT    438.35     0  02:50      0.56    1.42    1.00
  YS02001647YS02001649 CONDUIT    666.63     0  02:50      0.85    0.35    1.00
  YS02006553YS02006556 CONDUIT    667.85     0  03:16      0.85    0.57    1.00
  YS02006556YS02006558 CONDUIT    668.23     0  03:16      0.85    0.53    1.00
  YSB6556YSB1171       CONDUIT     24.81     0  03:03      0.09    0.03    0.67
  YS02001907YS02006553 CONDUIT    667.69     0  03:16      0.74    0.79    1.00
  YS02006558YS02006561 CONDUIT   1006.66     0  02:54      3.64    2.22    1.00
  YS02001633YS02163601 CONDUIT    437.87     0  02:50      0.56    0.46    1.00
  YS02001644YS02001647 CONDUIT    666.89     0  02:50      0.85    0.39    1.00
  YS02001745YS02001748 CONDUIT    577.79     0  02:42      1.48    0.22    0.94
  YS02001748YS02001751 CONDUIT    310.14     0  03:01      1.05    0.16    1.00
  YS02001751YS02001754 CONDUIT    310.12     0  03:01      0.88    0.15    1.00
  YS02001754YS02001757 CONDUIT    310.26     0  03:01      0.40    0.12    1.00
  YS02001882YS02001884 CONDUIT     12.39     0  02:29      0.09    0.01    1.00
  YS02001884YS02001887 CONDUIT     21.03     0  02:50      0.05    0.03    1.00
  YS02001890YS02001895 CONDUIT    453.44     0  03:01      0.58    0.21    1.00
  YS02001895YS02001898 CONDUIT    453.52     0  03:01      0.58    0.79    1.00
  YS02001898YS02001901 CONDUIT    453.56     0  03:01      0.58    0.29    1.00
  YS02001901YS02001904 CONDUIT    453.60     0  03:01      0.58    0.70    1.00
  YS02001904YS02001907 CONDUIT    453.58     0  03:01      0.58    0.16    1.00
  YS02001887YS02001890 CONDUIT    453.41     0  03:01      0.58    0.78    1.00
  YS02001652YS02001649 CONDUIT    377.98     0  03:01      0.50    0.19    1.00
  YS02001655YS02001652 CONDUIT    377.89     0  03:01      0.93    0.18    1.00
  YS02001658YS02001655 CONDUIT    377.49     0  03:01      1.21    0.16    1.00
  YS02001661YS02001658 CONDUIT    580.10     0  02:40      1.56    0.23    1.00
  YS02001664YS02001661 CONDUIT    690.42     0  02:54      1.57    0.22    0.71
  YSB1154YSB6556       CONDUIT     24.91     0  03:01      0.18    0.04    0.56
  YSB1174YSB1171       CONDUIT     18.78     0  03:01      0.07    0.03    0.68
  YSB1171HS02004479    CONDUIT     42.82     0  03:02      0.54    0.03    0.53
  HS02004881HS02006253 CONDUIT     79.15     0  03:01      1.62    0.02    0.27
  YS02001793JiankangQianchi CONDUIT    965.51     0  03:00     14.37    0.08    1.00
  YS02001757CaochengTiaoxuchi CONDUIT   1774.93     0  02:51      2.39    0.78    1.00
  WSF200WS02003060     CONDUIT    666.56     0  03:06      1.77    0.15    0.37
  1                    CONDUIT    975.03     0  03:08      3.30    0.34    0.40
  2                    CONDUIT    159.07     0  03:10      5.50    0.38    0.43
  3                    CONDUIT    533.52     0  02:59      9.90    0.85    0.71
  4                    CONDUIT      0.00     0  00:00      0.00    0.00    0.00
  CC-Pump-1            PUMP       200.00     0  01:59              1.00
  CC-Pump-2            PUMP       200.00     0  05:20              1.00
  JK-Pump-1            PUMP       300.00     0  02:07              1.00
  JK-Pump-2            PUMP       300.00     0  02:07              1.00
  XR-Pump-1            PUMP        95.00     0  04:10              1.00
  XR-Pump-2            PUMP        95.00     0  00:00              1.00
  XR-Pump-3            PUMP        95.00     0  00:20              1.00
  XR-Pump-4            PUMP        95.00     0  00:20              1.00
  
  
  ***************************
  Flow Classification Summary
  ***************************
  
  -------------------------------------------------------------------------------------
                      Adjusted    ---------- Fraction of Time in Flow Class ---------- 
                       /Actual         Up    Down  Sub   Sup   Up    Down  Norm  Inlet 
  Conduit               Length    Dry  Dry   Dry   Crit  Crit  Crit  Crit  Ltd   Ctrl  
  -------------------------------------------------------------------------------------
  WS02003066WSF200        1.00   0.04  0.01  0.00  0.00  0.94  0.00  0.00  0.59  0.00
  WS02006287WS02006284    1.00   0.03  0.01  0.00  0.54  0.42  0.00  0.00  0.65  0.00
  WS02006284WS02006280    1.00   0.04  0.00  0.00  0.00  0.00  0.00  0.96  0.00  0.00
  WS02006280WS02006229    1.00   0.04  0.00  0.00  0.00  0.00  0.00  0.96  0.00  0.00
  WS02006229WS02006228    1.00   0.00  0.00  0.00  1.00  0.00  0.00  0.00  0.00  0.00
  WS02006256WS02006235    1.00   0.00  0.00  0.00  0.99  0.00  0.00  0.00  0.00  0.00
  WS02006253WS02006251    1.00   0.02  0.01  0.00  0.96  0.00  0.00  0.00  0.00  0.00
  WS02006252WS02006251    1.00   0.07  0.00  0.00  0.00  0.00  0.93  0.00  0.00  0.00
  WS02006251WS02006249    1.00   0.00  0.00  0.00  1.00  0.00  0.00  0.00  0.39  0.00
  WS02006249WS02006248    1.00   0.00  0.00  0.00  0.76  0.00  0.23  0.00  0.00  0.00
  WS02006248WS02006247    1.00   0.00  0.00  0.00  0.98  0.00  0.00  0.02  0.27  0.00
  WS02006247WS02006245    1.00   0.00  0.00  0.00  0.98  0.00  0.00  0.02  0.00  0.00
  WS02006245WS02006243    1.00   0.01  0.00  0.00  0.96  0.00  0.00  0.03  0.02  0.00
  WS02006243WS02006242    1.00   0.01  0.00  0.00  0.99  0.00  0.00  0.00  0.18  0.00
  WS02006242WS02006240    1.00   0.00  0.00  0.00  1.00  0.00  0.00  0.00  0.00  0.00
  WS02006240WS02006239    1.00   0.00  0.00  0.00  0.97  0.00  0.00  0.03  0.01  0.00
  WS02006239WS02006238    1.00   0.00  0.00  0.00  1.00  0.00  0.00  0.00  0.00  0.00
  WS02006238WS02006235    1.00   0.00  0.00  0.00  1.00  0.00  0.00  0.00  0.00  0.00
  WS02006235WS02006234    1.00   0.00  0.00  0.00  0.97  0.00  0.03  0.00  0.00  0.00
  WS02006234WS02006232    1.00   0.00  0.00  0.00  1.00  0.00  0.00  0.00  0.00  0.00
  WS02006232WS02006231    1.00   0.00  0.00  0.00  0.99  0.00  0.00  0.00  0.00  0.00
  WS02006231WS02006230    1.00   0.00  0.00  0.00  0.53  0.00  0.47  0.00  0.00  0.00
  WS02006230WS02006229    1.00   0.00  0.00  0.00  0.99  0.00  0.00  0.01  0.00  0.00
  WS02006228WS02006109    1.00   0.00  0.00  0.00  1.00  0.00  0.00  0.00  0.00  0.00
  WS02006116WS02004401    1.00   0.02  0.00  0.00  0.98  0.00  0.00  0.00  0.00  0.00
  WS02006115WS02006116    1.00   0.02  0.00  0.00  0.97  0.00  0.00  0.01  0.00  0.00
  WS02006113WS02006111    1.00   0.02  0.00  0.00  0.00  0.98  0.00  0.00  0.12  0.00
  WS02006112WS02006115    1.00   0.02  0.00  0.00  0.98  0.00  0.00  0.00  0.00  0.00
  WS02006111WS02006112    1.00   0.02  0.00  0.00  0.98  0.00  0.00  0.00  0.89  0.00
  WS02006110WS02006113    1.00   0.00  0.01  0.00  0.98  0.00  0.00  0.00  0.00  0.00
  WS02006109WS02006110    1.00   0.00  0.00  0.00  1.00  0.00  0.00  0.00  0.00  0.00
  WS02004411WS02004412    1.00   0.04  0.00  0.00  0.96  0.00  0.00  0.00  0.00  0.00
  WS02004401WS02004402    1.00   0.02  0.00  0.00  0.98  0.00  0.00  0.00  0.00  0.00
  WS02004413WS02003067    1.00   0.04  0.01  0.00  0.00  0.00  0.95  0.00  0.00  0.00
  WS02004412WS02004413    1.00   0.04  0.00  0.00  0.96  0.00  0.00  0.00  0.03  0.00
  WS02004410WS02004411    1.00   0.04  0.00  0.00  0.96  0.00  0.00  0.00  0.03  0.00
  WS02004409WS02004410    1.00   0.04  0.00  0.00  0.96  0.00  0.00  0.00  0.02  0.00
  WS02004407WS02004409    1.00   0.04  0.00  0.00  0.96  0.00  0.00  0.00  0.87  0.00
  WS02004406WS02004407    1.00   0.00  0.04  0.00  0.96  0.00  0.00  0.00  0.00  0.00
  WS02004405WS02004406    1.00   0.00  0.00  0.00  1.00  0.00  0.00  0.00  0.03  0.00
  WS02004404WS02004405    1.00   0.00  0.00  0.00  1.00  0.00  0.00  0.00  0.00  0.00
  WS02004403WS02004404    1.00   0.00  0.02  0.00  0.98  0.00  0.00  0.00  0.01  0.00
  WS02004402WS02004403    1.00   0.02  0.00  0.00  0.98  0.00  0.00  0.00  0.00  0.00
  WS02004139WS02001211    1.00   0.00  0.00  0.00  1.00  0.00  0.00  0.00  0.00  0.00
  WS02004138WS02004139    1.00   0.00  0.00  0.00  1.00  0.00  0.00  0.00  1.00  0.00
  WS02003067WS02003066    1.00   0.05  0.00  0.00  0.94  0.00  0.00  0.00  0.00  0.00
  WS02001213WS02003059    1.00   0.00  0.00  0.00  1.00  0.00  0.00  0.00  0.00  0.00
  WS02001212WS02001213    1.00   0.00  0.00  0.00  0.75  0.00  0.25  0.00  0.00  0.00
  WS02001211WS02001212    1.00   0.00  0.00  0.00  1.00  0.00  0.00  0.00  0.00  0.00
  WS02003072WS02003073    1.00   0.00  0.00  0.00  0.00  0.00  0.00  1.00  0.00  0.00
  WS02003069WS02003072    1.00   0.00  0.00  0.00  1.00  0.00  0.00  0.00  0.26  0.00
  WS02003060WS02003069    1.00   0.00  0.00  0.00  0.98  0.02  0.00  0.00  0.02  0.00
  WS02003059WS02003060    1.00   0.00  0.00  0.00  1.00  0.00  0.00  0.00  0.02  0.00
  HS02004901HS02004770    1.00   0.04  0.00  0.00  0.96  0.00  0.00  0.00  0.00  0.00
  HS02004876HS02004881    1.00   0.00  0.00  0.00  0.90  0.10  0.00  0.00  0.00  0.00
  HS02004870HS02004876    1.00   0.00  0.00  0.00  0.99  0.01  0.00  0.00  0.95  0.00
  HS02004842HS02004848    1.00   0.00  0.04  0.00  0.96  0.00  0.00  0.00  0.58  0.00
  HS02004837HS02004842    1.00   0.00  0.00  0.00  1.00  0.00  0.00  0.00  0.11  0.00
  HS02004830HS02004837    1.00   0.00  0.00  0.00  1.00  0.00  0.00  0.00  0.99  0.00
  HS02004824HS02004830    1.00   0.00  0.00  0.00  1.00  0.00  0.00  0.00  0.00  0.00
  HS02004817HS02004824    1.00   0.00  0.00  0.00  1.00  0.00  0.00  0.00  1.00  0.00
  HS02004770HS02004777    1.00   0.00  0.04  0.00  0.96  0.00  0.00  0.00  0.03  0.00
  HS02004799HS02004480    1.00   0.00  0.01  0.00  0.96  0.00  0.03  0.00  0.00  0.00
  HS02004792HS02004799    1.00   0.00  0.00  0.00  1.00  0.00  0.00  0.00  0.98  0.00
  HS02004788HS02004792    1.00   0.00  0.00  0.00  1.00  0.00  0.00  0.00  0.98  0.00
  HS02004785HS02004788    1.00   0.00  0.00  0.00  1.00  0.00  0.00  0.00  0.00  0.00
  HS02004777HS02004785    1.00   0.00  0.00  0.00  1.00  0.00  0.00  0.00  0.14  0.00
  HS02004480HS02004478    1.00   0.04  0.00  0.00  0.62  0.00  0.00  0.34  0.00  0.00
  HS02004479HS02004480    1.00   0.02  0.00  0.00  0.98  0.00  0.00  0.00  0.12  0.00
  HS02004862HS02004870    1.00   0.00  0.00  0.00  1.00  0.00  0.00  0.00  0.05  0.00
  HS02004848HS02004852    1.00   0.04  0.00  0.00  0.96  0.00  0.00  0.00  0.61  0.00
  HS02004856HS02004862    1.00   0.00  0.05  0.00  0.95  0.00  0.00  0.00  0.80  0.00
  HS02004852HS02004856    1.00   0.04  0.00  0.00  0.96  0.00  0.00  0.00  0.85  0.00
  HS02004802HS02004478    1.00   0.04  0.00  0.00  0.96  0.00  0.00  0.00  0.03  0.00
  HS02004478WS02006287    1.00   0.04  0.00  0.00  0.69  0.26  0.00  0.00  0.66  0.00
  HS02004817HS02004807    1.00   0.00  0.04  0.00  0.96  0.00  0.00  0.00  0.01  0.00
  HS02004807HS02004802    1.00   0.04  0.00  0.00  0.96  0.00  0.00  0.00  0.00  0.00
  YS02001759YS02001757    1.00   0.00  0.00  0.00  1.00  0.00  0.00  0.00  0.16  0.00
  YS02001762YS02001759    1.00   0.00  0.00  0.00  1.00  0.00  0.00  0.00  0.04  0.00
  YS02001765YS02001762    1.00   0.00  0.00  0.00  1.00  0.00  0.00  0.00  0.16  0.00
  YS02001770YS02001767    1.00   0.00  0.00  0.00  1.00  0.00  0.00  0.00  0.00  0.00
  YS02001774YS02001770    1.00   0.00  0.04  0.00  0.96  0.00  0.00  0.00  0.04  0.00
  YS02001779YS02001774    1.00   0.00  0.00  0.00  1.00  0.00  0.00  0.00  0.21  0.00
  YS02001649YS02001757    1.00   0.00  0.00  0.00  1.00  0.00  0.00  0.00  0.17  0.00
  YS02001767YS02001765    1.00   0.00  0.00  0.00  1.00  0.00  0.00  0.00  0.00  0.00
  YS02006561YS02001783    1.00   0.05  0.00  0.00  0.39  0.56  0.00  0.00  0.55  0.00
  YS02001783YS02001784    1.00   0.00  0.05  0.00  0.95  0.00  0.00  0.00  0.01  0.00
  YS02001784YS02001785    1.00   0.00  0.00  0.00  1.00  0.00  0.00  0.00  0.20  0.00
  YS02001788YS02001790    1.00   0.00  0.00  0.00  0.39  0.61  0.00  0.00  0.48  0.00
  YS02001790YS02001791    1.00   0.00  0.00  0.00  0.34  0.66  0.00  0.00  0.47  0.00
  YS02001791YS02001793    1.00   0.00  0.00  0.00  0.36  0.64  0.00  0.00  0.01  0.00
  YS02001910YS02001907    1.00   0.00  0.00  0.00  0.99  0.00  0.00  0.00  0.13  0.00
  YS02001786YS02001788    1.00   0.00  0.00  0.00  0.40  0.60  0.00  0.00  0.00  0.00
  YS02001915YS02001910    1.00   0.00  0.00  0.00  0.99  0.01  0.00  0.00  0.18  0.00
  YS02001918YS02001915    1.00   0.00  0.00  0.00  1.00  0.00  0.00  0.00  0.58  0.00
  YS02001923YS02001920    1.00   0.00  0.00  0.00  1.00  0.00  0.00  0.00  0.86  0.00
  YS02001926YS02001923    1.00   0.00  0.03  0.00  0.14  0.00  0.83  0.00  0.00  0.00
  YS02001929YS02001926    1.00   0.00  0.04  0.00  0.96  0.00  0.00  0.00  0.80  0.00
  YS02001920YS02001918    1.00   0.00  0.00  0.00  1.00  0.00  0.00  0.00  0.00  0.00
  YS02001629YS02163301    1.00   0.04  0.00  0.00  0.95  0.00  0.00  0.00  0.00  0.00
  YS02001619YS02001622    1.00   0.04  0.00  0.00  0.96  0.00  0.00  0.00  0.00  0.00
  YS02001622YS02001625    1.00   0.04  0.00  0.00  0.96  0.00  0.00  0.00  0.07  0.00
  YS02001625YS02001629    1.00   0.04  0.01  0.00  0.93  0.00  0.02  0.00  0.00  0.00
  YS02163301YS02001633    1.00   0.00  0.04  0.00  0.96  0.00  0.00  0.00  0.00  0.00
  YS02163601YS02164001    1.00   0.00  0.03  0.00  0.97  0.00  0.00  0.00  0.00  0.00
  YS02164001YS02001641    1.00   0.00  0.03  0.00  0.97  0.00  0.00  0.00  0.06  0.00
  YS02001641YS02001644    1.00   0.00  0.00  0.00  1.00  0.00  0.00  0.00  0.00  0.00
  YS02001647YS02001649    1.00   0.00  0.05  0.00  0.95  0.00  0.00  0.00  0.01  0.00
  YS02006553YS02006556    1.00   0.00  0.00  0.00  1.00  0.00  0.00  0.00  0.03  0.00
  YS02006556YS02006558    1.00   0.00  0.00  0.00  1.00  0.00  0.00  0.00  0.00  0.00
  YSB6556YSB1171          1.00   0.02  0.02  0.00  0.96  0.00  0.00  0.00  0.00  0.00
  YS02001907YS02006553    1.00   0.00  0.00  0.00  1.00  0.00  0.00  0.00  0.00  0.00
  YS02006558YS02006561    1.00   0.05  0.00  0.00  0.16  0.79  0.00  0.00  0.47  0.00
  YS02001633YS02163601    1.00   0.00  0.00  0.00  1.00  0.00  0.00  0.00  0.16  0.00
  YS02001644YS02001647    1.00   0.00  0.05  0.00  0.95  0.00  0.00  0.00  0.00  0.00
  YS02001745YS02001748    1.00   0.00  0.00  0.00  0.88  0.01  0.00  0.10  0.05  0.00
  YS02001748YS02001751    1.00   0.00  0.00  0.00  0.97  0.03  0.00  0.00  0.15  0.00
  YS02001751YS02001754    1.00   0.00  0.00  0.00  0.94  0.00  0.00  0.05  0.02  0.00
  YS02001754YS02001757    1.00   0.00  0.00  0.00  1.00  0.00  0.00  0.00  0.20  0.00
  YS02001882YS02001884    1.00   0.04  0.00  0.00  0.96  0.00  0.00  0.00  0.00  0.00
  YS02001884YS02001887    1.00   0.03  0.01  0.00  0.97  0.00  0.00  0.00  0.00  0.00
  YS02001890YS02001895    1.00   0.00  0.04  0.00  0.96  0.00  0.00  0.00  0.00  0.00
  YS02001895YS02001898    1.00   0.05  0.00  0.00  0.95  0.00  0.01  0.00  0.00  0.00
  YS02001898YS02001901    1.00   0.05  0.00  0.00  0.95  0.00  0.00  0.00  0.02  0.00
  YS02001901YS02001904    1.00   0.05  0.00  0.00  0.95  0.00  0.00  0.00  0.00  0.00
  YS02001904YS02001907    1.00   0.00  0.04  0.00  0.95  0.00  0.00  0.00  0.00  0.00
  YS02001887YS02001890    1.00   0.00  0.00  0.00  0.99  0.00  0.01  0.00  0.00  0.00
  YS02001652YS02001649    1.00   0.00  0.00  0.00  1.00  0.00  0.00  0.00  0.18  0.00
  YS02001655YS02001652    1.00   0.00  0.00  0.00  0.95  0.00  0.00  0.05  0.02  0.00
  YS02001658YS02001655    1.00   0.00  0.04  0.00  0.93  0.03  0.00  0.00  0.11  0.00
  YS02001661YS02001658    1.00   0.04  0.00  0.00  0.88  0.08  0.00  0.00  0.06  0.00
  YS02001664YS02001661    1.00   0.04  0.00  0.00  0.86  0.11  0.00  0.00  0.22  0.00
  YSB1154YSB6556          1.00   0.04  0.00  0.00  0.96  0.00  0.00  0.00  0.02  0.00
  YSB1174YSB1171          1.00   0.02  0.01  0.00  0.97  0.00  0.00  0.00  0.00  0.00
  YSB1171HS02004479       1.00   0.02  0.00  0.00  0.98  0.00  0.00  0.01  0.11  0.00
  HS02004881HS02006253    1.00   0.02  0.00  0.00  0.65  0.01  0.00  0.32  0.50  0.00
  YS02001793JiankangQianchi    1.00   0.00  0.00  0.00  0.61  0.39  0.00  0.00  0.25  0.00
  YS02001757CaochengTiaoxuchi    1.00   0.00  0.07  0.00  0.92  0.01  0.00  0.00  0.00  0.00
  WSF200WS02003060        1.00   0.00  0.04  0.00  0.92  0.04  0.00  0.00  0.38  0.00
  1                       1.00   0.00  0.00  0.00  0.00  1.00  0.00  0.00  0.29  0.00
  2                       1.00   0.77  0.00  0.00  0.00  0.23  0.00  0.00  0.02  0.00
  3                       1.00   0.06  0.00  0.00  0.00  0.94  0.00  0.00  0.03  0.00
  4                       1.00   1.00  0.00  0.00  0.00  0.00  0.00  0.00  0.00  0.00
  
  
  *************************
  Conduit Surcharge Summary
  *************************
  
  ----------------------------------------------------------------------------
                                                           Hours        Hours 
                         --------- Hours Full --------   Above Full   Capacity
  Conduit                Both Ends  Upstream  Dnstream   Normal Flow   Limited
  ----------------------------------------------------------------------------
  WS02006229WS02006228        1.69      1.74      1.69      3.82         1.69
  WS02006256WS02006235        6.11      6.11      7.65      4.77         0.01
  WS02006252WS02006251        0.14      0.14      0.38      0.32         0.01
  WS02006251WS02006249        0.01      0.01      0.01      0.22         0.01
  WS02006249WS02006248        0.01      0.01      0.01      3.62         0.01
  WS02006247WS02006245        0.01      0.01      0.01      3.94         0.01
  WS02006245WS02006243        0.01      0.01      0.11      0.01         0.01
  WS02006243WS02006242        0.27      0.27      1.14      0.01         0.01
  WS02006242WS02006240        0.95      0.95      1.23      0.34         0.01
  WS02006240WS02006239        1.07      1.07      1.14      0.01         0.01
  WS02006239WS02006238        1.27      1.27      1.34      0.01         0.01
  WS02006238WS02006235        1.32      1.32      1.41      0.01         0.01
  WS02006235WS02006234        1.16      1.16      1.28      6.12         0.01
  WS02006234WS02006232        1.23      1.23      1.54      0.01         0.01
  WS02006232WS02006231        0.84      0.84      1.54      0.01         0.01
  WS02006231WS02006230        0.66      0.66      0.95      6.13         0.01
  WS02006230WS02006229        2.31      3.63      2.31      6.23         2.31
  WS02006228WS02006109        1.71      2.00      1.71      4.44         1.71
  WS02006112WS02006115        0.01      0.01      1.28      0.01         0.01
  WS02006111WS02006112        0.01      0.01      3.88      0.01         0.01
  WS02006110WS02006113        0.01      0.01      1.82      0.01         0.01
  WS02006109WS02006110        1.15      1.15      2.01      1.16         0.01
  WS02004406WS02004407        0.01      0.01      0.44      0.01         0.01
  WS02004405WS02004406        0.44      0.60      0.44      1.22         0.44
  WS02004404WS02004405        0.60      0.72      0.60      6.00         0.60
  WS02004403WS02004404        0.01      0.01      0.72      0.01         0.01
  WS02004402WS02004403        0.01      0.01      0.01      0.01         0.01
  WS02003072WS02003073        0.01      0.01      0.01      4.61         0.01
  HS02004480HS02004478        0.01      0.01      0.01      0.25         0.01
  YS02001759YS02001757        5.66      5.66      5.74      0.01         0.01
  YS02001762YS02001759        5.64      5.64      5.66      0.01         0.01
  YS02001765YS02001762        5.61      5.61      5.64      0.01         0.01
  YS02001770YS02001767        5.58      5.58      5.58      0.31         0.77
  YS02001774YS02001770        5.56      5.56      5.63      0.01         0.01
  YS02001779YS02001774        5.39      5.39      5.63      0.01         0.01
  YS02001649YS02001757        5.64      5.64      5.74      0.01         0.01
  YS02001767YS02001765        5.58      5.58      5.61      0.01         0.01
  YS02006561YS02001783        0.56      0.56      1.12      0.01         0.01
  YS02001783YS02001784        1.09      1.12      1.11      1.17         0.90
  YS02001784YS02001785        1.01      1.11      1.01      2.08         1.01
  YS02001788YS02001790        0.99      0.99      1.89      0.01         0.01
  YS02001790YS02001791        1.89      1.89      1.92      0.45         0.41
  YS02001791YS02001793        1.92      1.92      2.01      0.01         0.01
  YS02001910YS02001907        0.96      0.96      1.48      0.01         0.01
  YS02001786YS02001788        0.99      1.01      0.99      1.67         0.99
  YS02001915YS02001910        0.69      0.69      0.96      0.01         0.01
  YS02001918YS02001915        0.44      0.44      0.69      0.01         0.01
  YS02001923YS02001920        0.20      0.20      0.48      0.01         0.01
  YS02001926YS02001923        0.01      0.01      0.01      0.01         0.01
  YS02001929YS02001926        0.01      0.01      0.01      0.01         0.01
  YS02001920YS02001918        0.44      0.44      0.48      0.01         0.01
  YS02001629YS02163301        5.56      5.56      5.58      0.01         0.01
  YS02001619YS02001622        5.23      5.23      5.26      0.01         0.01
  YS02001622YS02001625        5.26      5.26      5.44      0.01         0.01
  YS02001625YS02001629        5.23      5.23      5.44      0.01         0.01
  YS02163301YS02001633        5.58      5.58      5.61      0.01         0.01
  YS02163601YS02164001        5.61      5.61      5.64      0.01         0.01
  YS02164001YS02001641        5.61      5.61      5.62      0.01         0.02
  YS02001641YS02001644        5.62      5.62      5.62      1.22         1.28
  YS02001647YS02001649        5.42      5.42      5.64      0.01         0.01
  YS02006553YS02006556        1.20      1.20      1.53      0.01         0.01
  YS02006556YS02006558        1.37      1.37      1.61      0.01         0.01
  YS02001907YS02006553        2.09      2.09      2.30      0.01         0.01
  YS02006558YS02006561        0.73      1.16      0.73      1.94         0.73
  YS02001633YS02163601        5.60      5.60      5.64      0.01         0.01
  YS02001644YS02001647        5.42      5.42      5.62      0.01         0.01
  YS02001745YS02001748        0.01      0.01      5.05      0.01         0.01
  YS02001748YS02001751        5.10      5.10      5.24      0.01         0.01
  YS02001751YS02001754        5.24      5.24      5.40      0.01         0.01
  YS02001754YS02001757        5.42      5.42      5.74      0.01         0.01
  YS02001882YS02001884        0.72      0.72      0.76      0.01         0.01
  YS02001884YS02001887        0.83      0.83      0.87      0.01         0.01
  YS02001890YS02001895        0.67      0.67      0.98      0.01         0.01
  YS02001895YS02001898        0.66      0.66      0.67      0.01         0.01
  YS02001898YS02001901        0.68      0.68      0.82      0.01         0.01
  YS02001901YS02001904        0.78      0.78      0.82      0.01         0.01
  YS02001904YS02001907        0.78      0.78      1.56      0.01         0.01
  YS02001887YS02001890        0.90      0.90      0.94      0.01         0.01
  YS02001652YS02001649        5.43      5.43      5.64      0.01         0.01
  YS02001655YS02001652        5.25      5.25      5.41      0.01         0.01
  YS02001658YS02001655        5.08      5.08      5.25      0.01         0.01
  YS02001661YS02001658        0.21      0.21      5.08      0.01         0.01
  YS02001664YS02001661        0.01      0.01      1.17      0.01         0.01
  YS02001793JiankangQianchi        1.99      1.99      3.63      0.01         0.01
  YS02001757CaochengTiaoxuchi        4.90      4.90      5.74      0.01         0.01
  
  
  ***************
  Pumping Summary
  ***************
  
  ---------------------------------------------------------------------------------------------------------
                                                  Min       Avg       Max     Total     Power    % Time Off
                        Percent   Number of      Flow      Flow      Flow    Volume     Usage    Pump Curve
  Pump                 Utilized   Start-Ups       LPS       LPS       LPS  10^6 ltr     Kw-hr    Low   High
  ---------------------------------------------------------------------------------------------------------
  CC-Pump-1               54.53           4      0.00    172.33    200.00     2.621      3.90    0.0   14.4
  CC-Pump-2               17.02           4      0.00     97.13    200.00     0.480      0.42    0.0    0.0
  JK-Pump-1               82.97           4      0.00    184.19    300.00     3.218     39.71    0.0    0.0
  JK-Pump-2               97.86           2      0.00    229.39    300.00     5.017     55.53    0.0    0.0
  XR-Pump-1               48.94           6      0.00     63.70     95.00     0.855      6.46    0.0    0.0
  XR-Pump-2               65.95           5      0.00     76.80     95.00     1.453     16.96    0.0    0.0
  XR-Pump-3               97.86           3      0.00     86.23     95.00     2.365     21.08    0.0    0.0
  XR-Pump-4               97.86           3      0.00     88.68     95.00     2.479     22.35    0.0    0.0
  

  Analysis begun on:  Thu Dec 23 15:16:15 2021
  Analysis ended on:  Thu Dec 23 15:16:19 2021
  Total elapsed time: 00:00:04