
  EPA STORM WATER MANAGEMENT MODEL - VERSION 5.1 (Build 5.3.0.dev0)
  --------------------------------------------------------------

  WARNING 04: minimum elevation drop used for Conduit WS02004404WS02004405
  WARNING 03: negative offset ignored for Link YS02001904YS02001907
  
  *********************************************************
  NOTE: The summary statistics displayed in this report are
  based on results found at every computational time step,  
  not just on results from each reporting time step.
  *********************************************************
  
  ****************
  Analysis Options
  ****************
  Flow Units ............... LPS
  Process Models:
    Rainfall/Runoff ........ YES
    RDII ................... NO
    Snowmelt ............... NO
    Groundwater ............ NO
    Flow Routing ........... YES
    Ponding Allowed ........ NO
    Water Quality .......... NO
  Infiltration Method ...... HORTON
  Flow Routing Method ...... DYNWAVE
  Surcharge Method ......... EXTRAN
  Starting Date ............ 08/28/2015 08:00:00
  Ending Date .............. 08/28/2015 15:50:00
  Antecedent Dry Days ...... 8.0
  Report Time Step ......... 00:01:00
  Wet Time Step ............ 00:01:00
  Dry Time Step ............ 00:01:00
  Routing Time Step ........ 5.00 sec
  Variable Time Step ....... YES
  Maximum Trials ........... 8
  Number of Threads ........ 4
  Head Tolerance ........... 0.001500 m
  
  
  **************************        Volume         Depth
  Runoff Quantity Continuity     hectare-m            mm
  **************************     ---------       -------
  Total Precipitation ......         6.144        13.452
  Evaporation Loss .........         0.000         0.000
  Infiltration Loss ........         1.572         3.442
  Surface Runoff ...........         3.480         7.619
  Final Storage ............         1.093         2.393
  Continuity Error (%) .....        -0.016
  
  
  **************************        Volume        Volume
  Flow Routing Continuity        hectare-m      10^6 ltr
  **************************     ---------     ---------
  Dry Weather Inflow .......         0.616         6.165
  Wet Weather Inflow .......         3.479        34.789
  Groundwater Inflow .......         0.000         0.000
  RDII Inflow ..............         0.000         0.000
  External Inflow ..........         0.102         1.024
  External Outflow .........         2.188        21.876
  Flooding Loss ............         1.558        15.578
  Evaporation Loss .........         0.000         0.000
  Exfiltration Loss ........         0.000         0.000
  Initial Stored Volume ....         0.076         0.761
  Final Stored Volume ......         0.653         6.530
  Continuity Error (%) .....        -2.915
  
  
  *************************
  Highest Continuity Errors
  *************************
  Node HS02004842 (15.27%)
  Node JK-storage (-13.16%)
  Node YS02001884 (10.76%)
  Node YSB1171 (2.79%)
  Node HS02004817 (2.78%)
  
  
  ***************************
  Time-Step Critical Elements
  ***************************
  Link 3 (61.05%)
  Link WS02006252WS02006251 (32.55%)
  Link WS02006280WS02006229 (1.39%)
  Link WS02006238WS02006235 (1.28%)
  
  
  ********************************
  Highest Flow Instability Indexes
  ********************************
  Link YS02163601YS02164001 (40)
  Link YS02163301YS02001633 (39)
  Link YS02001629YS02163301 (39)
  Link YS02001619YS02001622 (37)
  Link YS02164001YS02001641 (36)
  
  
  *************************
  Routing Time Step Summary
  *************************
  Minimum Time Step           :     0.08 sec
  Average Time Step           :     0.78 sec
  Maximum Time Step           :     5.00 sec
  Percent in Steady State     :    -0.00
  Average Iterations per Step :     4.50
  Percent Not Converging      :    19.26
  
  
  ***************************
  Subcatchment Runoff Summary
  ***************************
  
  ------------------------------------------------------------------------------------------------------------------------------
                            Total      Total      Total      Total     Imperv       Perv      Total       Total     Peak  Runoff
                           Precip      Runon       Evap      Infil     Runoff     Runoff     Runoff      Runoff   Runoff   Coeff
  Subcatchment                 mm         mm         mm         mm         mm         mm         mm    10^6 ltr      LPS
  ------------------------------------------------------------------------------------------------------------------------------
  sub0                      13.45       0.00       0.00       0.89      11.25       0.05      11.30        0.01     3.67   0.840
  sub1                      13.45       0.00       0.00       1.45      10.71       0.03      10.74        0.07    24.31   0.799
  sub2                      13.45       0.00       0.00       4.95       7.56       0.02       7.58        0.07    22.93   0.564
  sub3                      13.45       0.00       0.00       4.96       7.52       0.02       7.54        0.17    51.30   0.560
  sub4                      13.45       0.00       0.00       1.46      10.54       0.02      10.56        0.22    61.94   0.785
  sub5                      13.45       0.00       0.00       0.91      11.19       0.03      11.22        0.13    43.21   0.834
  sub7                      13.45       0.00       0.00       1.17      10.98       0.04      11.03        0.04    13.69   0.820
  sub8                      13.45       0.00       0.00       1.17      10.97       0.04      11.01        0.07    25.15   0.819
  sub9                      13.45       0.00       0.00       1.17      10.97       0.04      11.01        0.05    18.81   0.818
  sub10                     13.45       0.00       0.00       1.04      11.08       0.03      11.11        0.12    42.29   0.826
  sub11                     13.45       0.00       0.00       1.04      11.10       0.04      11.14        0.13    46.68   0.828
  sub12                     13.45       0.00       0.00       1.69      10.51       0.06      10.58        0.09    35.94   0.786
  sub14                     13.45       0.00       0.00       1.17      10.97       0.04      11.01        0.10    37.02   0.818
  sub15                     13.45       0.00       0.00       4.00       8.43       0.04       8.47        0.15    51.03   0.630
  sub16                     13.45       0.00       0.00       4.38       8.09       0.06       8.15        0.09    32.58   0.606
  sub17                     13.45       0.00       0.00       4.25       8.21       0.06       8.27        0.07    26.73   0.615
  sub22                     13.45       0.00       0.00       5.74       6.88       0.04       6.92        0.44   159.06   0.514
  sub23                     13.45       0.00       0.00       4.93       7.60       0.05       7.65        0.36   133.95   0.569
  sub60                     13.45       0.00       0.00       1.61       8.73       0.00       8.74        2.65   387.96   0.649
  sub61                     13.45       0.00       0.00       2.28       8.88       0.00       8.88        2.74   483.52   0.660
  sub62                     13.45       0.00       0.00       1.07       9.65       0.00       9.66        2.97   496.42   0.718
  sub63                     13.45       0.00       0.00       3.90       7.77       0.00       7.77        2.35   446.68   0.578
  sub64                     13.45       0.00       0.00       2.01       8.38       0.00       8.38        2.55   368.35   0.623
  sub65                     13.45       0.00       0.00       1.75       8.52       0.00       8.52        2.62   373.60   0.634
  sub66                     13.45       0.00       0.00       3.90       7.19       0.00       7.19        2.21   337.96   0.535
  sub67                     13.45       0.00       0.00       1.07      10.19       0.01      10.19        3.15   622.58   0.758
  sub68                     13.45       0.00       0.00       1.88       9.34       0.01       9.34        2.87   531.38   0.694
  sub69                     13.45       0.00       0.00       2.01       9.68       0.01       9.69        2.26   503.32   0.720
  sub70                     13.45       9.89       0.00       7.67      12.93       0.26      13.20        3.02   423.72   0.565
  sub71                     13.45       0.00       0.00       1.07       9.40       0.00       9.40        2.22   347.35   0.699
  sub72                     13.45       0.00       0.00       0.94       7.49       0.00       7.50        1.53   163.23   0.557
  sub73                     13.45      12.84       0.00       8.67      14.26       0.27      14.53        3.41   375.92   0.552
  sub74                     13.45       0.00       0.00      10.09       2.88       0.00       2.89        1.15   273.25   0.215
  
  
  ******************
  Node Depth Summary
  ******************
  
  ---------------------------------------------------------------------------------
                                 Average  Maximum  Maximum  Time of Max    Reported
                                   Depth    Depth      HGL   Occurrence   Max Depth
  Node                 Type       Meters   Meters   Meters  days hr:min      Meters
  ---------------------------------------------------------------------------------
  WS02001211           JUNCTION     0.66     0.76     5.60     0  03:09        0.76
  WS02001212           JUNCTION     0.39     0.49     5.56     0  03:07        0.49
  WS02001213           JUNCTION     0.63     0.77     5.53     0  03:07        0.77
  WS02003069           JUNCTION     0.45     0.64     5.22     0  03:06        0.64
  WS02003072           JUNCTION     0.52     0.69     5.06     0  03:07        0.69
  WS02003073           JUNCTION     0.31     0.43     4.50     0  03:08        0.43
  WS02003060           JUNCTION     0.40     0.56     5.50     0  03:06        0.56
  WS02003066           JUNCTION     0.24     0.36     5.91     0  03:05        0.36
  WS02003059           JUNCTION     0.69     0.83     5.52     0  03:06        0.83
  WS02003067           JUNCTION     0.59     0.79     6.11     0  03:05        0.79
  WS02004401           JUNCTION     0.71     1.11     7.11     0  03:03        1.11
  WS02004402           JUNCTION     0.74     1.11     7.07     0  03:03        1.11
  WS02004403           JUNCTION     0.76     1.10     7.03     0  03:03        1.10
  WS02004404           JUNCTION     0.83     1.15     7.00     0  03:03        1.15
  WS02004406           JUNCTION     0.83     1.10     6.93     0  03:03        1.10
  WS02004409           JUNCTION     0.52     0.85     6.62     0  03:04        0.85
  WS02004410           JUNCTION     0.54     0.85     6.57     0  03:04        0.85
  WS02004411           JUNCTION     0.55     0.84     6.52     0  03:04        0.84
  WS02004412           JUNCTION     0.57     0.83     6.47     0  03:05        0.83
  WS02004413           JUNCTION     0.72     0.97     6.44     0  03:05        0.97
  WS02004405           JUNCTION     0.82     1.13     6.98     0  03:03        1.13
  WS02006109           JUNCTION     0.79     1.26     7.88     0  03:02        1.25
  WS02006110           JUNCTION     0.77     1.11     7.69     0  03:02        1.11
  WS02006111           JUNCTION     0.24     0.60     7.31     0  03:03        0.60
  WS02006112           JUNCTION     0.88     1.39     7.27     0  03:03        1.38
  WS02006113           JUNCTION     0.36     0.61     7.50     0  03:03        0.61
  WS02006115           JUNCTION     0.61     1.06     7.20     0  03:03        1.06
  WS02006116           JUNCTION     0.69     1.12     7.16     0  03:03        1.12
  WS02006230           JUNCTION     0.78     1.39     8.14     0  03:02        1.38
  WS02006231           JUNCTION     0.52     1.03     8.15     0  03:02        1.01
  WS02006232           JUNCTION     0.66     1.12     8.16     0  03:02        1.11
  WS02006234           JUNCTION     0.57     1.01     8.17     0  03:02        1.00
  WS02006235           JUNCTION     0.60     1.02     8.18     0  03:02        1.00
  WS02006238           JUNCTION     0.63     1.04     8.18     0  03:02        1.02
  WS02006240           JUNCTION     0.51     0.90     8.20     0  03:02        0.89
  WS02006242           JUNCTION     0.56     0.94     8.21     0  03:02        0.93
  WS02006243           JUNCTION     0.44     0.79     8.21     0  03:02        0.79
  WS02006245           JUNCTION     0.41     0.74     8.22     0  03:02        0.73
  WS02006247           JUNCTION     0.42     0.73     8.23     0  03:02        0.72
  WS02006248           JUNCTION     0.36     0.64     8.23     0  03:02        0.64
  WS02006249           JUNCTION     0.39     0.64     8.24     0  03:02        0.64
  WS02006239           JUNCTION     0.58     0.98     8.19     0  03:02        0.97
  WS02006251           JUNCTION     0.37     0.62     8.29     0  03:02        0.62
  WS02006252           JUNCTION     0.31     0.59     8.83     0  05:30        0.59
  WS02006253           JUNCTION     0.40     0.65     8.30     0  03:02        0.65
  WS02006256           JUNCTION     1.10     1.23     8.17     0  03:02        1.23
  WS02004138           JUNCTION     0.15     0.20     7.45     0  00:00        0.19
  WS02004407           JUNCTION     0.23     0.37     6.68     0  03:03        0.37
  WS02006228           JUNCTION     0.80     1.38     8.03     0  03:02        1.37
  WS02006229           JUNCTION     0.78     1.42     8.12     0  03:02        1.41
  WS02006280           JUNCTION     0.08     0.24     8.52     0  03:02        0.24
  WS02006284           JUNCTION     0.38     0.63     9.02     0  03:02        0.62
  WS02006287           JUNCTION     0.12     0.37     9.32     0  03:02        0.37
  WSF200               JUNCTION     0.23     0.40     5.63     0  03:05        0.40
  HS02004901           JUNCTION     0.14     0.35    10.17     0  03:01        0.35
  HS02004881           JUNCTION     0.01     0.05     9.08     0  03:01        0.05
  HS02004876           JUNCTION     0.05     0.15     9.18     0  03:01        0.15
  HS02004870           JUNCTION     0.02     0.09     9.37     0  03:01        0.09
  HS02004862           JUNCTION     0.02     0.10     9.49     0  03:01        0.10
  HS02004856           JUNCTION     0.08     0.15     9.57     0  03:01        0.15
  HS02004852           JUNCTION     0.01     0.07     9.58     0  03:02        0.07
  HS02004848           JUNCTION     0.01     0.06     9.67     0  03:01        0.06
  HS02004842           JUNCTION     0.34     0.40     9.67     0  03:01        0.40
  HS02004837           JUNCTION     0.03     0.09     9.67     0  03:01        0.09
  HS02004830           JUNCTION     0.04     0.10     9.57     0  03:01        0.10
  HS02004824           JUNCTION     0.03     0.11     9.51     0  03:02        0.11
  HS02004817           JUNCTION     0.45     0.67     9.52     0  03:02        0.67
  HS02004807           JUNCTION     0.14     0.34     9.51     0  03:02        0.34
  HS02004802           JUNCTION     0.18     0.38     9.50     0  03:02        0.38
  HS02004799           JUNCTION     0.14     0.43     9.65     0  03:01        0.43
  HS02004792           JUNCTION     0.04     0.20     9.72     0  03:01        0.19
  HS02004788           JUNCTION     0.03     0.14    10.04     0  03:02        0.14
  HS02004785           JUNCTION     0.06     0.23    10.13     0  03:02        0.23
  HS02004777           JUNCTION     0.16     0.37    10.17     0  03:01        0.37
  HS02004770           JUNCTION     0.13     0.34    10.17     0  03:01        0.34
  HS02004480           JUNCTION     0.10     0.35     9.59     0  03:01        0.35
  HS02004479           JUNCTION     0.13     0.39     9.60     0  03:01        0.39
  HS02004478           JUNCTION     0.07     0.26     9.48     0  03:01        0.26
  YS02001745           JUNCTION     0.69     0.89     8.40     0  03:23        0.89
  YS02001748           JUNCTION     1.07     2.27     9.35     0  02:46        1.33
  YS02001751           JUNCTION     1.25     2.20     9.08     0  02:44        1.53
  YS02001754           JUNCTION     1.50     2.19     8.80     0  02:46        1.81
  YS02001762           JUNCTION     1.71     2.07     8.47     0  02:47        2.03
  YS02001765           JUNCTION     1.66     2.01     8.46     0  02:47        1.97
  YS02001767           JUNCTION     1.62     1.96     8.45     0  02:47        1.93
  YS02001770           JUNCTION     1.62     1.95     8.44     0  02:46        1.91
  YS02001774           JUNCTION     1.69     2.02     8.44     0  02:46        1.97
  YS02001779           JUNCTION     1.43     1.68     8.37     0  02:44        1.68
  YS02001882           JUNCTION     0.60     1.64     8.36     0  02:54        1.63
  YS02001884           JUNCTION     0.69     1.73     8.35     0  02:54        1.72
  YS02001759           JUNCTION     1.74     2.11     8.48     0  02:47        2.07
  YS02001887           JUNCTION     0.77     1.81     8.35     0  02:59        1.80
  YS02001890           JUNCTION     0.80     1.81     8.32     0  02:54        1.81
  YS02001898           JUNCTION     0.57     1.57     8.30     0  02:55        1.56
  YS02001901           JUNCTION     0.69     1.68     8.29     0  02:55        1.67
  YS02001904           JUNCTION     0.66     1.64     8.27     0  02:55        1.63
  YS02001907           JUNCTION     0.99     1.96     8.25     0  02:55        1.96
  YS02001910           JUNCTION     0.78     1.79     8.30     0  02:56        1.78
  YS02001915           JUNCTION     0.58     1.62     8.33     0  02:56        1.59
  YS02001918           JUNCTION     0.32     1.31     8.38     0  02:56        1.26
  YS02001619           JUNCTION     1.22     1.61     8.54     0  02:42        1.47
  YS02001629           JUNCTION     1.57     1.85     8.40     0  02:42        1.85
  YS02001641           JUNCTION     1.67     2.00     8.43     0  02:46        1.93
  YS02001644           JUNCTION     1.67     1.92     8.35     0  02:46        1.92
  YS02001652           JUNCTION     1.52     2.16     8.76     0  02:56        2.08
  YS02001655           JUNCTION     1.28     2.20     9.05     0  02:41        2.03
  YS02001920           JUNCTION     0.42     1.40     8.40     0  02:56        1.33
  YS02001923           JUNCTION     0.25     1.16     8.42     0  02:56        1.09
  YS02001926           JUNCTION     0.30     0.99     8.44     0  02:56        0.93
  YS02001929           JUNCTION     0.17     0.73     8.43     0  02:56        0.70
  YS02001658           JUNCTION     1.02     2.30     9.44     0  02:42        1.74
  YS02001661           JUNCTION     0.80     2.46     9.86     0  02:56        1.69
  YS02001664           JUNCTION     0.35     0.57     8.49     0  04:12        0.56
  YS02001622           JUNCTION     1.24     1.62     8.52     0  02:42        1.50
  YS02001633           JUNCTION     1.66     2.01     8.46     0  02:46        1.94
  YS02001649           JUNCTION     1.71     2.05     8.44     0  02:46        2.05
  YS02001757           JUNCTION     1.83     2.21     8.47     0  02:46        2.17
  YS02001895           JUNCTION     0.56     1.57     8.31     0  03:06        1.56
  YS02001625           JUNCTION     1.52     1.78     8.38     0  02:42        1.78
  YS02163301           JUNCTION     1.60     1.93     8.44     0  02:46        1.88
  YS02163601           JUNCTION     1.71     2.08     8.48     0  02:46        1.98
  YS02164001           JUNCTION     1.65     2.02     8.48     0  02:46        1.91
  YS02001647           JUNCTION     1.50     1.81     8.42     0  02:46        1.79
  YSB1154              JUNCTION     0.27     0.54     9.60     0  03:01        0.54
  YSB6556              JUNCTION     0.17     0.43     9.60     0  03:02        0.43
  YSB1174              JUNCTION     0.23     0.49     9.60     0  03:01        0.49
  YSB1171              JUNCTION     0.42     0.69     9.60     0  03:01        0.69
  YS02006553           JUNCTION     0.99     2.16     8.44     0  02:57        1.96
  YS02006561           JUNCTION     0.35     1.74     8.40     0  02:57        1.08
  YS02006556           JUNCTION     0.96     2.36     8.67     0  02:57        1.93
  YS02006558           JUNCTION     1.00     2.48     8.75     0  02:57        1.97
  YS02001783           JUNCTION     0.59     2.26     8.40     0  02:57        1.47
  YS02001784           JUNCTION     0.61     2.28     8.35     0  02:57        1.42
  YS02001786           JUNCTION     0.55     2.22     8.25     0  02:57        1.26
  YS02001788           JUNCTION     0.48     2.28     8.26     0  02:57        1.13
  YS02001790           JUNCTION     0.61     1.96     7.60     0  02:56        1.29
  YS02001791           JUNCTION     0.58     2.36     7.83     0  02:56        1.27
  YS02001793           JUNCTION     0.79     2.00     6.83     0  02:56        1.80
  WS02004139           JUNCTION     0.60     0.70     5.61     0  00:10        0.70
  WSC                  OUTFALL      0.31     0.43     1.10     0  03:08        0.43
  3                    OUTFALL      0.13     0.23     6.23     0  03:02        0.23
  4                    OUTFALL      0.02     0.14     7.14     0  03:02        0.14
  5                    OUTFALL      0.00     0.00     5.00     0  00:00        0.00
  JK-storage           STORAGE      2.80     5.80     6.60     0  02:57        5.80
  CC-storage           STORAGE      1.05     1.39     8.39     0  03:41        1.39
  XR-storage           STORAGE      6.23     7.72     5.72     0  03:08        7.72
  
  
  *******************
  Node Inflow Summary
  *******************
  
  -------------------------------------------------------------------------------------------------
                                  Maximum  Maximum                  Lateral       Total        Flow
                                  Lateral    Total  Time of Max      Inflow      Inflow     Balance
                                   Inflow   Inflow   Occurrence      Volume      Volume       Error
  Node                 Type           LPS      LPS  days hr:min    10^6 ltr    10^6 ltr     Percent
  -------------------------------------------------------------------------------------------------
  WS02001211           JUNCTION      7.35   385.98     0  00:10       0.207        7.07       0.395
  WS02001212           JUNCTION      0.00   384.09     0  00:11           0        7.05       0.225
  WS02001213           JUNCTION      0.00   383.67     0  00:11           0        7.03       0.319
  WS02003069           JUNCTION      0.32  1100.85     0  03:06     0.00902        15.5       0.165
  WS02003072           JUNCTION      0.00  1100.62     0  03:07           0        15.5       0.210
  WS02003073           JUNCTION      1.82  1102.50     0  03:07      0.0514        15.5       0.229
  WS02003060           JUNCTION     16.53  1100.50     0  03:05       0.466        15.5       0.155
  WS02003066           JUNCTION      0.00   801.69     0  03:05           0         8.1       0.051
  WS02003059           JUNCTION      0.00   381.85     0  00:12           0        7.01       0.457
  WS02003067           JUNCTION      0.00   801.23     0  03:05           0        8.11       0.109
  WS02004401           JUNCTION      0.00   804.60     0  03:03           0        8.33       0.237
  WS02004402           JUNCTION      0.00   804.69     0  03:03           0        8.31       0.225
  WS02004403           JUNCTION      0.00   804.75     0  03:03           0        8.29       0.207
  WS02004404           JUNCTION      0.16   804.96     0  03:03     0.00457        8.28       0.158
  WS02004406           JUNCTION      0.00   805.04     0  03:03           0        8.24       0.385
  WS02004409           JUNCTION      0.00   804.86     0  03:03           0        8.21       0.178
  WS02004410           JUNCTION      0.00   803.18     0  03:04           0        8.19       0.204
  WS02004411           JUNCTION      0.00   801.98     0  03:04           0        8.17       0.212
  WS02004412           JUNCTION      0.00   801.33     0  03:04           0        8.16       0.232
  WS02004413           JUNCTION      0.00   801.15     0  03:05           0        8.14       0.348
  WS02004405           JUNCTION      0.04   805.02     0  03:03     0.00107        8.26       0.236
  WS02006109           JUNCTION      1.23   789.74     0  03:02      0.0347        8.37       0.235
  WS02006110           JUNCTION      0.00   789.73     0  03:02           0        8.35       0.215
  WS02006111           JUNCTION      0.00   786.59     0  03:02           0        8.32       0.045
  WS02006112           JUNCTION     26.73   804.11     0  03:03      0.0709        8.39       0.327
  WS02006113           JUNCTION      0.00   789.65     0  03:02           0        8.33       0.097
  WS02006115           JUNCTION      0.00   804.14     0  03:03           0        8.36       0.212
  WS02006116           JUNCTION      0.00   804.39     0  03:03           0        8.34       0.204
  WS02006230           JUNCTION     10.28   400.95     0  05:32        0.29        6.27       0.176
  WS02006231           JUNCTION      0.00   391.73     0  05:32           0        5.99       0.178
  WS02006232           JUNCTION      0.00   391.75     0  05:32           0        6.01       0.242
  WS02006234           JUNCTION      0.00   393.99     0  05:31           0        6.01       0.105
  WS02006235           JUNCTION      0.00   394.00     0  05:31           0        6.06       0.157
  WS02006238           JUNCTION      0.00   312.13     0  06:50           0         3.8       0.170
  WS02006240           JUNCTION      0.00   313.48     0  06:41           0        3.79       0.268
  WS02006242           JUNCTION      0.00   324.17     0  06:41           0        3.79       0.348
  WS02006243           JUNCTION      0.00   335.03     0  06:41           0        3.78      -0.013
  WS02006245           JUNCTION      0.00   342.71     0  06:41           0        3.79       0.258
  WS02006247           JUNCTION      0.00   349.28     0  06:41           0        3.79       0.164
  WS02006248           JUNCTION      0.00   354.99     0  06:41           0        3.79       0.071
  WS02006249           JUNCTION      0.00   401.40     0  05:37           0         4.2       0.291
  WS02006239           JUNCTION      0.00   311.82     0  06:50           0        3.79       0.256
  WS02006251           JUNCTION      0.08   401.51     0  06:41     0.00217        4.23       0.196
  WS02006252           JUNCTION      0.00   400.00     0  05:30           0         3.8       0.011
  WS02006253           JUNCTION      3.67   134.78     0  03:01     0.00915       0.428       0.908
  WS02006256           JUNCTION      0.00   600.00     0  02:15           0        8.29       0.031
  WS02004138           JUNCTION      0.00   380.00     0  00:00           0         6.9       0.076
  WS02004407           JUNCTION      0.00   805.11     0  03:03           0        8.21       0.079
  WS02006228           JUNCTION      0.00   788.55     0  03:02           0        8.35       0.163
  WS02006229           JUNCTION      0.00   788.62     0  03:02           0        8.36       0.130
  WS02006280           JUNCTION      0.00   611.95     0  03:02           0         2.1       0.003
  WS02006284           JUNCTION      0.10   611.06     0  03:02      0.0027         2.1       0.059
  WS02006287           JUNCTION      0.00   609.84     0  03:02           0         2.1       0.034
  WSF200               JUNCTION      0.00   801.83     0  03:05           0         8.1       0.048
  HS02004901           JUNCTION     32.58    32.58     0  03:01      0.0854      0.0856       2.108
  HS02004881           JUNCTION     13.69   131.68     0  03:01      0.0372       0.403       0.064
  HS02004876           JUNCTION     24.31   119.37     0  03:01      0.0714       0.367       0.153
  HS02004870           JUNCTION     25.15    96.63     0  03:01      0.0703       0.295       0.038
  HS02004862           JUNCTION     23.13    73.48     0  03:01      0.0763       0.225       0.079
  HS02004856           JUNCTION     18.81    51.88     0  03:01      0.0529        0.15       0.973
  HS02004852           JUNCTION      0.00    35.11     0  03:01           0      0.0975       0.061
  HS02004848           JUNCTION     51.30    51.30     0  03:01        0.17        0.17       0.031
  HS02004842           JUNCTION      0.00    15.11     0  03:01           0      0.0852      18.025
  HS02004837           JUNCTION     48.64    62.30     0  03:01       0.302       0.374       0.219
  HS02004830           JUNCTION      0.15    61.39     0  03:01     0.00423       0.364       0.341
  HS02004824           JUNCTION     61.99   121.77     0  03:01       0.222       0.584       0.093
  HS02004817           JUNCTION      0.60   117.99     0  03:02      0.0169       0.601       2.855
  HS02004807           JUNCTION     46.68   158.05     0  03:01       0.129       0.713       0.602
  HS02004802           JUNCTION      0.00   156.92     0  03:03           0       0.709       0.572
  HS02004799           JUNCTION     37.02   389.10     0  03:01       0.105        1.19       0.208
  HS02004792           JUNCTION    159.34   356.48     0  03:01       0.445        1.08       0.039
  HS02004788           JUNCTION     52.70   202.58     0  03:02       0.193       0.638       0.062
  HS02004785           JUNCTION      0.15   157.28     0  03:01     0.00423       0.447       0.112
  HS02004777           JUNCTION      0.03   160.02     0  03:01    0.000846       0.447       1.175
  HS02004770           JUNCTION    133.95   163.78     0  03:01       0.365       0.449       0.699
  HS02004480           JUNCTION      0.00   456.70     0  03:01           0         1.4       0.083
  HS02004479           JUNCTION      0.00    72.19     0  03:02           0       0.228       0.322
  HS02004478           JUNCTION      0.00   609.31     0  03:02           0         2.1       0.019
  YS02001745           JUNCTION    387.96   457.05     0  02:45        2.65        2.66       0.420
  YS02001748           JUNCTION      0.04   655.58     0  02:46     0.00127        2.65       0.871
  YS02001751           JUNCTION      0.01   400.32     0  03:01     0.00031        2.61       0.904
  YS02001754           JUNCTION      0.26   400.30     0  03:01     0.00733         2.6       0.963
  YS02001762           JUNCTION      0.00   382.18     0  02:54           0        1.84       1.161
  YS02001765           JUNCTION      0.00   381.99     0  02:54           0        1.84       1.338
  YS02001767           JUNCTION      0.54   382.14     0  02:54      0.0151        1.87       1.954
  YS02001770           JUNCTION    496.57   496.57     0  03:01        2.97        3.18       0.998
  YS02001774           JUNCTION      0.00   389.75     0  03:30           0         1.5       1.702
  YS02001779           JUNCTION      0.01   389.84     0  03:30    0.000141        1.47       1.042
  YS02001882           JUNCTION      0.00    20.02     0  02:49           0      0.0241      11.030
  YS02001884           JUNCTION      0.00    25.18     0  02:47           0      0.0591      12.060
  YS02001759           JUNCTION    483.56   765.75     0  02:55        2.74        4.35       0.531
  YS02001887           JUNCTION    623.03   623.06     0  03:01        3.16        3.19       0.275
  YS02001890           JUNCTION      0.00   623.28     0  03:01           0        3.14       0.302
  YS02001898           JUNCTION      0.00   516.89     0  03:06           0        3.09       0.118
  YS02001901           JUNCTION      0.00   516.88     0  03:06           0        3.08       0.228
  YS02001904           JUNCTION      0.00   516.86     0  03:06           0        3.08       0.212
  YS02001907           JUNCTION      0.00  1102.34     0  02:57           0        6.88       0.360
  YS02001910           JUNCTION      0.00   589.46     0  02:57           0        3.81       0.314
  YS02001915           JUNCTION    347.37   589.26     0  02:57        2.22        3.84       0.168
  YS02001918           JUNCTION      0.00   288.74     0  02:57           0        1.63       0.122
  YS02001619           JUNCTION    337.96   337.96     0  03:01        2.21        2.21       0.553
  YS02001629           JUNCTION      0.00   222.30     0  02:49           0        1.57       1.853
  YS02001641           JUNCTION      0.00   466.73     0  02:49           0        4.09       0.518
  YS02001644           JUNCTION    368.39  1123.86     0  03:26        2.55        9.52       0.275
  YS02001652           JUNCTION      0.00   484.63     0  03:01           0         2.3       1.017
  YS02001655           JUNCTION      0.15   484.50     0  03:01     0.00434        2.33       1.094
  YS02001920           JUNCTION      2.87   288.73     0  02:57      0.0809        1.62       0.194
  YS02001923           JUNCTION      0.04   282.03     0  02:57     0.00106        1.53       0.047
  YS02001926           JUNCTION      0.05   216.88     0  02:57     0.00147        1.53       0.231
  YS02001929           JUNCTION    163.23   163.23     0  03:01        1.53        1.53       0.038
  YS02001658           JUNCTION      0.00   610.04     0  02:42           0        2.35       0.990
  YS02001661           JUNCTION      0.00   738.13     0  03:03           0        3.04      -0.103
  YS02001664           JUNCTION    446.68   446.68     0  03:01        2.35        3.05       0.224
  YS02001622           JUNCTION      0.00   338.16     0  03:01           0        2.19       1.464
  YS02001633           JUNCTION    373.80   466.86     0  02:49        2.63        4.15       0.782
  YS02001649           JUNCTION      0.00   983.98     0  02:50           0        5.55       0.673
  YS02001757           JUNCTION      0.00  1931.41     0  02:52           0        9.36       0.995
  YS02001895           JUNCTION      0.00   516.85     0  03:06           0        3.09       0.167
  YS02001625           JUNCTION      0.00   338.04     0  03:01           0        2.16       1.808
  YS02163301           JUNCTION      0.00   222.32     0  02:49           0        1.55       1.576
  YS02163601           JUNCTION      0.11   466.98     0  02:49      0.0031        4.11       0.737
  YS02164001           JUNCTION      0.00   466.75     0  02:50           0        4.09       0.492
  YS02001647           JUNCTION      0.00   710.08     0  02:50           0        4.59       0.616
  YSB1154              JUNCTION     43.21    43.21     0  03:01       0.127       0.128       1.145
  YSB6556              JUNCTION      0.00    41.77     0  03:01           0       0.129       0.980
  YSB1174              JUNCTION     35.94    35.94     0  03:01      0.0924      0.0931       1.403
  YSB1171              JUNCTION      0.00    73.33     0  03:01           0       0.227       2.865
  YS02006553           JUNCTION      0.00   706.94     0  02:55           0        6.22       0.255
  YS02006561           JUNCTION      0.00  1144.70     0  02:56           0        9.06       0.007
  YS02006556           JUNCTION      0.00   706.98     0  02:55           0        6.22       0.185
  YS02006558           JUNCTION    532.26  1145.01     0  02:56         2.9        9.09       0.061
  YS02001783           JUNCTION      0.00  1144.54     0  02:56           0        9.06       0.028
  YS02001784           JUNCTION      1.06  1145.80     0  02:56      0.0299        9.09       0.045
  YS02001786           JUNCTION      0.06  1145.73     0  02:56     0.00159        9.09       0.042
  YS02001788           JUNCTION      0.07  1146.00     0  02:56       0.002        9.08       0.022
  YS02001790           JUNCTION      0.15  1155.59     0  02:56     0.00437        9.09       0.032
  YS02001791           JUNCTION      0.00  1181.92     0  02:54           0        9.08       0.010
  YS02001793           JUNCTION      0.00  1131.39     0  02:54           0        9.08      -0.001
  WS02004139           JUNCTION      0.32   393.28     0  00:00     0.00905         6.9       0.488
  WSC                  OUTFALL       0.00  1102.61     0  03:08           0        15.5       0.000
  3                    OUTFALL       0.00   586.88     0  03:02           0           6       0.000
  4                    OUTFALL       0.00   182.06     0  03:02           0       0.396       0.000
  5                    OUTFALL       0.00     0.00     0  00:00           0           0       0.000 ltr
  JK-storage           STORAGE       0.00  1094.68     0  02:57           0        9.23     -11.626
  CC-storage           STORAGE       0.00  1931.51     0  02:51           0        7.64       0.846
  XR-storage           STORAGE     849.17   849.17     0  03:01        10.2        10.8      -0.000
  
  
  **********************
  Node Surcharge Summary
  **********************
  
  Surcharging occurs when water rises above the top of the highest conduit.
  ---------------------------------------------------------------------
                                               Max. Height   Min. Depth
                                   Hours       Above Crown    Below Rim
  Node                 Type      Surcharged         Meters       Meters
  ---------------------------------------------------------------------
  WS02004401           JUNCTION        0.32          0.108        1.552
  WS02004402           JUNCTION        0.38          0.110        1.630
  WS02004403           JUNCTION        0.39          0.100        1.930
  WS02004404           JUNCTION        0.79          0.152        2.628
  WS02004406           JUNCTION        0.62          0.103        2.347
  WS02004405           JUNCTION        0.71          0.133        2.667
  WS02006109           JUNCTION        2.01          0.442        1.378
  WS02006110           JUNCTION        1.10          0.199        1.651
  WS02006112           JUNCTION        1.23          0.385        1.295
  WS02006115           JUNCTION        0.12          0.050        2.200
  WS02006116           JUNCTION        0.15          0.057        2.233
  WS02006230           JUNCTION        0.75          0.310        1.260
  WS02006231           JUNCTION        0.90          0.317        1.213
  WS02006232           JUNCTION        2.02          0.418        1.062
  WS02006234           JUNCTION        1.07          0.291        0.949
  WS02006235           JUNCTION        1.64          0.307        0.983
  WS02006238           JUNCTION        1.81          0.315        1.115
  WS02006240           JUNCTION        0.93          0.192        1.198
  WS02006242           JUNCTION        1.46          0.210        0.610
  WS02006243           JUNCTION        0.39          0.081        0.689
  WS02006245           JUNCTION        0.12          0.026        0.824
  WS02006247           JUNCTION        0.10          0.016        0.744
  WS02006239           JUNCTION        1.14          0.237        1.053
  WS02006252           JUNCTION        0.72          0.186        0.914
  WS02006228           JUNCTION        1.96          0.554        1.646
  YS02001748           JUNCTION        5.03          1.190        0.000
  YS02001751           JUNCTION        5.12          1.200        0.000
  YS02001754           JUNCTION        5.28          1.141        0.009
  YS02001762           JUNCTION        5.51          1.074        0.076
  YS02001765           JUNCTION        5.49          1.008        0.092
  YS02001767           JUNCTION        5.47          0.957        0.073
  YS02001770           JUNCTION        5.45          0.920        0.000
  YS02001774           JUNCTION        5.50          1.021        0.029
  YS02001779           JUNCTION        5.28          0.680        0.000
  YS02001882           JUNCTION        0.99          0.641        0.189
  YS02001884           JUNCTION        1.03          0.674        0.196
  YS02001759           JUNCTION        5.54          1.111        0.099
  YS02001887           JUNCTION        1.12          0.760        0.190
  YS02001890           JUNCTION        1.15          0.760        0.000
  YS02001898           JUNCTION        0.95          0.536        0.204
  YS02001901           JUNCTION        1.08          0.678        0.192
  YS02001904           JUNCTION        1.05          0.639        0.211
  YS02001907           JUNCTION        1.67          0.950        0.000
  YS02001910           JUNCTION        1.20          0.792        0.308
  YS02001915           JUNCTION        0.98          0.615        0.385
  YS02001918           JUNCTION        0.72          0.311        0.499
  YS02001619           JUNCTION        5.15          0.610        0.000
  YS02001629           JUNCTION        5.15          0.470        0.000
  YS02001641           JUNCTION        5.50          0.995        0.105
  YS02001644           JUNCTION        5.50          0.920        0.000
  YS02001652           JUNCTION        5.29          1.130        0.000
  YS02001655           JUNCTION        5.15          1.200        0.000
  YS02001920           JUNCTION        0.76          0.397        0.743
  YS02001658           JUNCTION        5.05          1.300        0.000
  YS02001661           JUNCTION        0.26          1.390        0.000
  YS02001622           JUNCTION        5.16          0.620        0.000
  YS02001633           JUNCTION        5.48          0.988        0.072
  YS02001649           JUNCTION        5.52          1.050        0.000
  YS02001757           JUNCTION        5.62          1.210        0.000
  YS02001895           JUNCTION        0.96          0.566        0.184
  YS02001625           JUNCTION        5.34          0.780        0.000
  YS02163301           JUNCTION        5.46          0.927        0.103
  YS02163601           JUNCTION        5.52          1.080        0.000
  YS02164001           JUNCTION        5.49          1.019        0.081
  YS02001647           JUNCTION        5.30          0.815        0.085
  YS02006553           JUNCTION        1.73          1.156        0.034
  YS02006561           JUNCTION        0.81          0.941        0.209
  YS02006556           JUNCTION        1.41          1.320        0.030
  YS02006558           JUNCTION        1.38          1.378        0.022
  YS02001783           JUNCTION        1.37          1.461        0.139
  YS02001784           JUNCTION        1.41          1.481        0.009
  YS02001786           JUNCTION        1.27          1.420        0.010
  YS02001788           JUNCTION        1.20          1.480        0.000
  YS02001790           JUNCTION        2.46          1.157        0.000
  YS02001791           JUNCTION        2.49          1.565        0.355
  YS02001793           JUNCTION        2.55          0.997        1.603
  
  
  *********************
  Node Flooding Summary
  *********************
  
  Flooding refers to all water that overflows a node, whether it ponds or not.
  --------------------------------------------------------------------------
                                                             Total   Maximum
                                 Maximum   Time of Max       Flood    Ponded
                        Hours       Rate    Occurrence      Volume     Depth
  Node                 Flooded       LPS   days hr:min    10^6 ltr    Meters
  --------------------------------------------------------------------------
  YS02001748              0.01    427.63      0  02:46       0.001     0.000
  YS02001751              0.01    138.43      0  02:44       0.000     0.000
  YS02001770              0.01      6.17      0  02:46       0.000     0.000
  YS02001779              2.92    389.82      0  03:30       1.447     0.000
  YS02001890              0.22    106.77      0  03:01       0.038     0.000
  YS02001907              0.59    644.06      0  03:01       0.649     0.000
  YS02001619              0.01     20.05      0  02:44       0.000     0.000
  YS02001629              0.01     32.14      0  02:43       0.000     0.000
  YS02001644              4.47   1123.70      0  03:26       7.794     0.000
  YS02001652              0.01     21.81      0  03:08       0.000     0.000
  YS02001655              0.01    121.53      0  02:41       0.000     0.000
  YS02001658              0.01    155.33      0  02:42       0.000     0.000
  YS02001661              0.01    171.27      0  03:08       0.002     0.000
  YS02001622              0.01     33.17      0  02:42       0.000     0.000
  YS02001649              0.11     48.37      0  03:08       0.006     0.000
  YS02001757              0.01     22.64      0  02:46       0.000     0.000
  YS02001625              1.16    317.42      0  03:01       0.556     0.000
  YS02163601              0.01      2.46      0  02:46       0.000     0.000
  YS02001788              0.01    103.95      0  02:57       0.000     0.000
  YS02001790              0.01     78.24      0  02:56       0.000     0.000
  JK-storage              2.28    581.12      0  03:40       2.101     0.000
  XR-storage              4.70    538.41      0  03:30       2.983     0.000
  
  
  **********************
  Storage Volume Summary
  **********************
  
  --------------------------------------------------------------------------------------------------
                         Average     Avg  Evap Exfil       Maximum     Max    Time of Max    Maximum
                          Volume    Pcnt  Pcnt  Pcnt        Volume    Pcnt     Occurrence    Outflow
  Storage Unit           1000 m3    Full  Loss  Loss       1000 m3    Full    days hr:min        LPS
  --------------------------------------------------------------------------------------------------
  JK-storage               0.141      48     0     0         0.291     100       0  02:57     600.00
  CC-storage               2.936      19     0     0         3.879      25       0  03:41     400.00
  XR-storage               0.747      81     0     0         0.926     100       0  03:08     380.00
  
  
  ***********************
  Outfall Loading Summary
  ***********************
  
  -----------------------------------------------------------
                         Flow       Avg       Max       Total
                         Freq      Flow      Flow      Volume
  Outfall Node           Pcnt       LPS       LPS    10^6 ltr
  -----------------------------------------------------------
  WSC                   99.99    622.66   1102.61      15.479
  3                     93.15    300.77    586.88       6.000
  4                     31.30     62.54    182.06       0.396
  5                      0.00      0.00      0.00       0.000
  -----------------------------------------------------------
  System                56.11    985.98   1821.92      21.876
  
  
  ********************
  Link Flow Summary
  ********************
  
  -----------------------------------------------------------------------------
                                 Maximum  Time of Max   Maximum    Max/    Max/
                                  |Flow|   Occurrence   |Veloc|    Full    Full
  Link                 Type          LPS  days hr:min     m/sec    Flow   Depth
  -----------------------------------------------------------------------------
  WS02003066WSF200     CONDUIT    801.83     0  03:05      2.92    0.14    0.29
  WS02006287WS02006284 CONDUIT    610.96     0  03:02      2.31    0.28    0.37
  WS02006284WS02006280 CONDUIT    611.95     0  03:02      2.55    0.26    0.35
  WS02006280WS02006229 CONDUIT    612.07     0  03:02      4.12    0.13    0.24
  WS02006229WS02006228 CONDUIT    788.55     0  03:02      1.57    2.61    1.00
  WS02006256WS02006235 CONDUIT    166.25     0  00:01      2.58    1.76    1.00
  WS02006253WS02006251 CONDUIT    133.87     0  03:01      0.45    0.40    0.90
  WS02006252WS02006251 CONDUIT    400.25     0  06:44      3.19    1.47    1.00
  WS02006251WS02006249 CONDUIT    401.40     0  05:37      1.17    1.16    0.90
  WS02006249WS02006248 CONDUIT    354.99     0  06:41      1.16    1.94    0.90
  WS02006248WS02006247 CONDUIT    349.28     0  06:41      1.12    0.76    0.96
  WS02006247WS02006245 CONDUIT    342.71     0  06:41      1.08    2.72    1.00
  WS02006245WS02006243 CONDUIT    335.03     0  06:41      1.09    0.99    1.00
  WS02006243WS02006242 CONDUIT    324.17     0  06:41      0.95    0.69    1.00
  WS02006242WS02006240 CONDUIT    313.48     0  06:41      0.86    1.25    1.00
  WS02006240WS02006239 CONDUIT    311.82     0  06:50      0.85    0.98    1.00
  WS02006239WS02006238 CONDUIT    312.13     0  06:50      0.81    1.00    1.00
  WS02006238WS02006235 CONDUIT    312.09     0  06:50      1.25    0.70    1.00
  WS02006235WS02006234 CONDUIT    393.99     0  05:31      1.04    4.16    1.00
  WS02006234WS02006232 CONDUIT    391.75     0  05:32      1.13    0.79    1.00
  WS02006232WS02006231 CONDUIT    391.73     0  05:32      1.06    0.82    1.00
  WS02006231WS02006230 CONDUIT    390.67     0  05:32      1.36    5.93    1.00
  WS02006230WS02006229 CONDUIT    400.71     0  05:33      1.04    8.92    1.00
  WS02006228WS02006109 CONDUIT    788.51     0  03:02      1.57    3.45    1.00
  WS02006116WS02004401 CONDUIT    804.60     0  03:03      1.02    1.11    1.00
  WS02006115WS02006116 CONDUIT    804.39     0  03:03      1.02    1.03    1.00
  WS02006113WS02006111 CONDUIT    786.59     0  03:02      2.60    0.94    0.76
  WS02006112WS02006115 CONDUIT    804.14     0  03:03      1.02    0.47    1.00
  WS02006111WS02006112 CONDUIT    786.47     0  03:04      1.72    0.37    0.87
  WS02006110WS02006113 CONDUIT    789.65     0  03:02      1.69    0.72    0.88
  WS02006109WS02006110 CONDUIT    789.73     0  03:02      1.57    1.52    1.00
  WS02004411WS02004412 CONDUIT    801.33     0  03:04      1.14    1.14    0.84
  WS02004401WS02004402 CONDUIT    804.69     0  03:03      1.02    0.97    1.00
  WS02004413WS02003067 CONDUIT    801.23     0  03:05      1.39    0.34    0.69
  WS02004412WS02004413 CONDUIT    801.15     0  03:05      1.07    0.54    0.90
  WS02004410WS02004411 CONDUIT    801.98     0  03:04      1.13    1.10    0.85
  WS02004409WS02004410 CONDUIT    803.18     0  03:04      1.13    1.04    0.85
  WS02004407WS02004409 CONDUIT    804.86     0  03:03      1.62    0.29    0.61
  WS02004406WS02004407 CONDUIT    805.11     0  03:03      1.41    0.36    0.68
  WS02004405WS02004406 CONDUIT    805.04     0  03:03      1.03    1.59    1.00
  WS02004404WS02004405 CONDUIT    804.98     0  03:03      1.02    7.89    1.00
  WS02004403WS02004404 CONDUIT    804.80     0  03:03      1.02    0.58    1.00
  WS02004402WS02004403 CONDUIT    804.75     0  03:03      1.02    1.16    1.00
  WS02004139WS02001211 CONDUIT    378.64     0  00:10      0.90    0.48    0.57
  WS02004138WS02004139 CONDUIT    392.96     0  00:00      3.64    0.08    0.42
  WS02003067WS02003066 CONDUIT    801.69     0  03:05      1.51    0.26    0.48
  WS02001213WS02003059 CONDUIT    381.85     0  00:12      0.90    0.63    0.79
  WS02001212WS02001213 CONDUIT    383.67     0  00:11      1.32    0.59    0.47
  WS02001211WS02001212 CONDUIT    384.09     0  00:11      0.78    0.29    0.63
  WS02003072WS02003073 CONDUIT   1100.68     0  03:07      1.83    2.38    0.53
  WS02003069WS02003072 CONDUIT   1100.62     0  03:07      1.71    0.53    0.56
  WS02003060WS02003069 CONDUIT   1100.53     0  03:06      1.94    0.43    0.50
  WS02003059WS02003060 CONDUIT    379.66     0  00:12      0.94    0.25    0.70
  HS02004901HS02004770 CONDUIT     32.24     0  03:01      0.09    0.12    0.50
  HS02004876HS02004881 CONDUIT    119.32     0  03:01      1.17    1.27    0.15
  HS02004870HS02004876 CONDUIT     96.13     0  03:01      0.79    0.06    0.17
  HS02004842HS02004848 CONDUIT     15.11     0  03:01      0.07    0.01    0.33
  HS02004837HS02004842 CONDUIT     16.10     0  03:03      0.41    0.01    0.34
  HS02004830HS02004837 CONDUIT     61.24     0  03:01      0.66    0.06    0.13
  HS02004824HS02004830 CONDUIT     60.79     0  03:01      0.63    0.08    0.15
  HS02004817HS02004824 CONDUIT    117.39     0  03:02      0.30    0.05    0.56
  HS02004770HS02004777 CONDUIT    159.99     0  03:01      0.45    0.29    0.51
  HS02004799HS02004480 CONDUIT    387.38     0  03:01      1.00    0.49    0.56
  HS02004792HS02004799 CONDUIT    353.06     0  03:01      1.12    0.22    0.45
  HS02004788HS02004792 CONDUIT    202.14     0  03:02      1.22    0.13    0.24
  HS02004785HS02004788 CONDUIT    156.68     0  03:02      0.85    1.18    0.26
  HS02004777HS02004785 CONDUIT    157.13     0  03:01      0.53    0.19    0.42
  HS02004480HS02004478 CONDUIT    456.75     0  03:01      1.47    1.92    0.44
  HS02004479HS02004480 CONDUIT     74.07     0  03:02      0.22    0.07    0.53
  HS02004862HS02004870 CONDUIT     73.11     0  03:01      0.77    0.08    0.14
  HS02004848HS02004852 CONDUIT     35.11     0  03:01      0.52    0.04    0.10
  HS02004856HS02004862 CONDUIT     51.23     0  03:01      0.58    0.05    0.13
  HS02004852HS02004856 CONDUIT     35.02     0  03:02      0.32    0.04    0.16
  HS02004802HS02004478 CONDUIT    160.68     0  03:04      0.54    0.14    0.45
  HS02004478WS02006287 CONDUIT    609.84     0  03:02      2.03    0.17    0.33
  HS02004817HS02004807 CONDUIT    120.81     0  03:04      0.24    0.07    0.73
  HS02004807HS02004802 CONDUIT    156.92     0  03:03      0.45    0.30    0.51
  YS02001759YS02001757 CONDUIT    765.72     0  02:55      0.97    0.54    1.00
  YS02001762YS02001759 CONDUIT    382.11     0  02:54      0.49    0.44    1.00
  YS02001765YS02001762 CONDUIT    382.18     0  02:54      0.49    0.36    1.00
  YS02001770YS02001767 CONDUIT    381.60     0  02:54      0.49    1.51    1.00
  YS02001774YS02001770 CONDUIT    389.75     0  03:30      0.50    0.25    1.00
  YS02001779YS02001774 CONDUIT    389.84     0  03:30      0.50    0.20    1.00
  YS02001649YS02001757 CONDUIT    984.27     0  02:50      1.25    0.60    1.00
  YS02001767YS02001765 CONDUIT    381.99     0  02:54      0.49    0.48    1.00
  YS02006561YS02001783 CONDUIT   1144.54     0  02:56      2.28    0.59    1.00
  YS02001783YS02001784 CONDUIT   1144.74     0  02:56      2.28    1.58    1.00
  YS02001784YS02001785 CONDUIT   1145.67     0  02:56      2.28    2.67    1.00
  YS02001788YS02001790 CONDUIT   1155.44     0  02:56      2.73    0.85    1.00
  YS02001790YS02001791 CONDUIT   1181.92     0  02:54      3.34    1.29    1.00
  YS02001791YS02001793 CONDUIT   1131.39     0  02:54      6.39    0.49    1.00
  YS02001910YS02001907 CONDUIT    589.35     0  02:57      0.75    0.33    1.00
  YS02001786YS02001788 CONDUIT   1145.92     0  02:56      2.46    2.21    1.00
  YS02001915YS02001910 CONDUIT    589.46     0  02:57      0.75    0.29    1.00
  YS02001918YS02001915 CONDUIT    289.28     0  02:57      0.44    0.16    1.00
  YS02001923YS02001920 CONDUIT    285.86     0  02:57      0.72    0.13    1.00
  YS02001926YS02001923 CONDUIT    281.99     0  02:57      0.82    0.40    0.96
  YS02001929YS02001926 CONDUIT    216.83     0  02:57      0.87    0.10    0.85
  YS02001920YS02001918 CONDUIT    288.74     0  02:57      0.70    0.28    1.00
  YS02001629YS02163301 CONDUIT    222.32     0  02:49      0.28    0.27    1.00
  YS02001619YS02001622 CONDUIT    338.16     0  03:01      0.60    0.50    1.00
  YS02001622YS02001625 CONDUIT    338.04     0  03:01      0.43    0.18    1.00
  YS02001625YS02001629 CONDUIT    222.30     0  02:49      0.28    0.11    1.00
  YS02163301YS02001633 CONDUIT    222.19     0  02:49      0.28    0.21    1.00
  YS02163601YS02164001 CONDUIT    466.75     0  02:50      0.59    0.41    1.00
  YS02164001YS02001641 CONDUIT    466.73     0  02:49      0.59    0.64    1.00
  YS02001641YS02001644 CONDUIT    466.65     0  02:49      0.59    1.51    1.00
  YS02001647YS02001649 CONDUIT    710.45     0  02:50      0.90    0.38    1.00
  YS02006553YS02006556 CONDUIT    706.98     0  02:55      0.90    0.60    1.00
  YS02006556YS02006558 CONDUIT    706.82     0  02:55      0.90    0.56    1.00
  YSB6556YSB1171       CONDUIT     41.33     0  03:02      0.13    0.04    0.80
  YS02001907YS02006553 CONDUIT    706.94     0  02:55      0.79    0.83    1.00
  YS02006558YS02006561 CONDUIT   1144.70     0  02:56      4.05    2.53    1.00
  YS02001633YS02163601 CONDUIT    466.87     0  02:49      0.59    0.49    1.00
  YS02001644YS02001647 CONDUIT    710.08     0  02:50      0.90    0.42    1.00
  YS02001745YS02001748 CONDUIT    655.54     0  02:46      1.48    0.25    0.94
  YS02001748YS02001751 CONDUIT    400.31     0  03:01      1.03    0.20    1.00
  YS02001751YS02001754 CONDUIT    400.04     0  03:01      0.84    0.19    1.00
  YS02001754YS02001757 CONDUIT    400.41     0  03:01      0.51    0.16    1.00
  YS02001882YS02001884 CONDUIT     20.02     0  02:49      0.08    0.02    1.00
  YS02001884YS02001887 CONDUIT     25.18     0  02:47      0.05    0.03    1.00
  YS02001890YS02001895 CONDUIT    516.85     0  03:06      0.66    0.24    1.00
  YS02001895YS02001898 CONDUIT    516.89     0  03:06      0.66    0.90    1.00
  YS02001898YS02001901 CONDUIT    516.88     0  03:06      0.66    0.33    1.00
  YS02001901YS02001904 CONDUIT    516.86     0  03:06      0.66    0.80    1.00
  YS02001904YS02001907 CONDUIT    516.84     0  03:06      0.66    0.18    1.00
  YS02001887YS02001890 CONDUIT    623.28     0  03:01      0.79    1.07    1.00
  YS02001652YS02001649 CONDUIT    484.86     0  03:01      0.62    0.24    1.00
  YS02001655YS02001652 CONDUIT    484.63     0  03:01      0.89    0.24    1.00
  YS02001658YS02001655 CONDUIT    484.35     0  03:01      1.18    0.21    1.00
  YS02001661YS02001658 CONDUIT    610.04     0  02:42      1.56    0.24    1.00
  YS02001664YS02001661 CONDUIT    738.13     0  03:03      1.59    0.23    0.73
  YSB1154YSB6556       CONDUIT     41.77     0  03:01      0.19    0.08    0.69
  YSB1174YSB1171       CONDUIT     34.49     0  03:01      0.10    0.05    0.81
  YSB1171HS02004479    CONDUIT     72.19     0  03:02      0.54    0.05    0.65
  HS02004881HS02006253 CONDUIT    131.62     0  03:01      1.58    0.03    0.26
  YS02001793JiankangQianchi CONDUIT   1094.68     0  02:57     16.39    0.09    1.00
  YS02001757CaochengTiaoxuchi CONDUIT   1931.51     0  02:51      2.71    0.85    1.00
  WSF200WS02003060     CONDUIT    802.11     0  03:05      1.90    0.18    0.40
  1                    CONDUIT   1102.61     0  03:08      3.41    0.38    0.43
  2                    CONDUIT    182.06     0  03:02      5.70    0.44    0.46
  3                    CONDUIT    586.88     0  03:02     10.01    0.93    0.77
  4                    CONDUIT      0.00     0  00:00      0.00    0.00    0.00
  CC-Pump-1            PUMP       200.00     0  02:06              1.00
  CC-Pump-2            PUMP       200.00     0  05:30              1.00
  JK-Pump-1            PUMP       300.00     0  00:00              1.00
  JK-Pump-2            PUMP       300.00     0  02:15              1.00
  XR-Pump-1            PUMP        95.00     0  00:00              1.00
  XR-Pump-2            PUMP        95.00     0  00:00              1.00
  XR-Pump-3            PUMP        95.00     0  00:00              1.00
  XR-Pump-4            PUMP        95.00     0  00:00              1.00
  
  
  ***************************
  Flow Classification Summary
  ***************************
  
  -------------------------------------------------------------------------------------
                      Adjusted    ---------- Fraction of Time in Flow Class ---------- 
                       /Actual         Up    Down  Sub   Sup   Up    Down  Norm  Inlet 
  Conduit               Length    Dry  Dry   Dry   Crit  Crit  Crit  Crit  Ltd   Ctrl  
  -------------------------------------------------------------------------------------
  WS02003066WSF200        1.00   0.04  0.01  0.00  0.00  0.95  0.00  0.00  0.61  0.00
  WS02006287WS02006284    1.00   0.04  0.01  0.00  0.55  0.40  0.00  0.00  0.67  0.00
  WS02006284WS02006280    1.00   0.04  0.00  0.00  0.00  0.00  0.00  0.96  0.00  0.00
  WS02006280WS02006229    1.00   0.04  0.00  0.00  0.00  0.00  0.00  0.96  0.00  0.00
  WS02006229WS02006228    1.00   0.00  0.00  0.00  0.99  0.00  0.00  0.01  0.00  0.00
  WS02006256WS02006235    1.00   0.00  0.00  0.00  1.00  0.00  0.00  0.00  0.00  0.00
  WS02006253WS02006251    1.00   0.03  0.01  0.00  0.96  0.00  0.00  0.00  0.00  0.00
  WS02006252WS02006251    1.00   0.07  0.00  0.00  0.00  0.00  0.93  0.00  0.00  0.00
  WS02006251WS02006249    1.00   0.00  0.00  0.00  1.00  0.00  0.00  0.00  0.32  0.00
  WS02006249WS02006248    1.00   0.00  0.02  0.00  0.83  0.00  0.15  0.00  0.00  0.00
  WS02006248WS02006247    1.00   0.02  0.00  0.00  0.98  0.00  0.00  0.00  0.20  0.00
  WS02006247WS02006245    1.00   0.02  0.00  0.00  0.98  0.00  0.00  0.00  0.00  0.00
  WS02006245WS02006243    1.00   0.01  0.00  0.00  0.95  0.00  0.00  0.03  0.01  0.00
  WS02006243WS02006242    1.00   0.01  0.00  0.00  0.99  0.00  0.00  0.00  0.21  0.00
  WS02006242WS02006240    1.00   0.00  0.00  0.00  1.00  0.00  0.00  0.00  0.00  0.00
  WS02006240WS02006239    1.00   0.00  0.00  0.00  0.97  0.00  0.00  0.03  0.01  0.00
  WS02006239WS02006238    1.00   0.00  0.00  0.00  1.00  0.00  0.00  0.00  0.00  0.00
  WS02006238WS02006235    1.00   0.00  0.00  0.00  1.00  0.00  0.00  0.00  0.00  0.00
  WS02006235WS02006234    1.00   0.00  0.00  0.00  0.97  0.00  0.03  0.00  0.00  0.00
  WS02006234WS02006232    1.00   0.00  0.00  0.00  1.00  0.00  0.00  0.00  0.00  0.00
  WS02006232WS02006231    1.00   0.00  0.00  0.00  0.99  0.00  0.00  0.00  0.00  0.00
  WS02006231WS02006230    1.00   0.00  0.00  0.00  0.64  0.00  0.35  0.00  0.00  0.00
  WS02006230WS02006229    1.00   0.00  0.00  0.00  0.99  0.00  0.00  0.01  0.00  0.00
  WS02006228WS02006109    1.00   0.00  0.00  0.00  1.00  0.00  0.00  0.00  0.00  0.00
  WS02006116WS02004401    1.00   0.02  0.00  0.00  0.98  0.00  0.00  0.00  0.00  0.00
  WS02006115WS02006116    1.00   0.02  0.00  0.00  0.97  0.00  0.00  0.01  0.00  0.00
  WS02006113WS02006111    1.00   0.02  0.00  0.00  0.03  0.95  0.00  0.00  0.10  0.00
  WS02006112WS02006115    1.00   0.02  0.00  0.00  0.98  0.00  0.00  0.00  0.00  0.00
  WS02006111WS02006112    1.00   0.02  0.00  0.00  0.98  0.00  0.00  0.00  0.89  0.00
  WS02006110WS02006113    1.00   0.01  0.01  0.00  0.98  0.00  0.00  0.00  0.00  0.00
  WS02006109WS02006110    1.00   0.00  0.01  0.00  0.98  0.00  0.01  0.00  0.00  0.00
  WS02004411WS02004412    1.00   0.04  0.00  0.00  0.96  0.00  0.00  0.00  0.00  0.00
  WS02004401WS02004402    1.00   0.02  0.00  0.00  0.98  0.00  0.00  0.00  0.00  0.00
  WS02004413WS02003067    1.00   0.04  0.01  0.00  0.00  0.00  0.95  0.00  0.00  0.00
  WS02004412WS02004413    1.00   0.04  0.00  0.00  0.96  0.00  0.00  0.00  0.03  0.00
  WS02004410WS02004411    1.00   0.03  0.00  0.00  0.97  0.00  0.00  0.00  0.03  0.00
  WS02004409WS02004410    1.00   0.03  0.00  0.00  0.97  0.00  0.00  0.00  0.03  0.00
  WS02004407WS02004409    1.00   0.03  0.00  0.00  0.96  0.00  0.00  0.00  0.89  0.00
  WS02004406WS02004407    1.00   0.00  0.03  0.00  0.97  0.00  0.00  0.00  0.00  0.00
  WS02004405WS02004406    1.00   0.00  0.00  0.00  1.00  0.00  0.00  0.00  0.01  0.00
  WS02004404WS02004405    1.00   0.00  0.00  0.00  1.00  0.00  0.00  0.00  0.00  0.00
  WS02004403WS02004404    1.00   0.00  0.02  0.00  0.98  0.00  0.00  0.00  0.01  0.00
  WS02004402WS02004403    1.00   0.02  0.00  0.00  0.98  0.00  0.00  0.00  0.00  0.00
  WS02004139WS02001211    1.00   0.00  0.00  0.00  1.00  0.00  0.00  0.00  0.00  0.00
  WS02004138WS02004139    1.00   0.00  0.00  0.00  0.99  0.01  0.00  0.00  1.00  0.00
  WS02003067WS02003066    1.00   0.05  0.00  0.00  0.95  0.00  0.00  0.00  0.00  0.00
  WS02001213WS02003059    1.00   0.00  0.00  0.00  0.99  0.00  0.00  0.00  0.00  0.00
  WS02001212WS02001213    1.00   0.00  0.00  0.00  0.79  0.00  0.21  0.00  0.00  0.00
  WS02001211WS02001212    1.00   0.00  0.00  0.00  1.00  0.00  0.00  0.00  0.00  0.00
  WS02003072WS02003073    1.00   0.00  0.00  0.00  0.00  0.00  0.00  1.00  0.00  0.00
  WS02003069WS02003072    1.00   0.00  0.00  0.00  0.99  0.01  0.00  0.00  0.28  0.00
  WS02003060WS02003069    1.00   0.00  0.00  0.00  0.98  0.02  0.00  0.00  0.06  0.00
  WS02003059WS02003060    1.00   0.00  0.00  0.00  1.00  0.00  0.00  0.00  0.01  0.00
  HS02004901HS02004770    1.00   0.04  0.00  0.00  0.96  0.00  0.00  0.00  0.01  0.00
  HS02004876HS02004881    1.00   0.02  0.00  0.00  0.86  0.12  0.00  0.00  0.00  0.00
  HS02004870HS02004876    1.00   0.00  0.00  0.00  0.99  0.00  0.00  0.00  0.95  0.00
  HS02004842HS02004848    1.00   0.00  0.04  0.00  0.96  0.00  0.00  0.00  0.58  0.00
  HS02004837HS02004842    1.00   0.00  0.00  0.00  0.99  0.01  0.00  0.00  0.11  0.00
  HS02004830HS02004837    1.00   0.00  0.00  0.00  1.00  0.00  0.00  0.00  0.99  0.00
  HS02004824HS02004830    1.00   0.00  0.00  0.00  1.00  0.00  0.00  0.00  0.01  0.00
  HS02004817HS02004824    1.00   0.00  0.00  0.00  1.00  0.00  0.00  0.00  0.98  0.00
  HS02004770HS02004777    1.00   0.00  0.04  0.00  0.96  0.00  0.00  0.00  0.04  0.00
  HS02004799HS02004480    1.00   0.00  0.02  0.00  0.95  0.00  0.02  0.00  0.00  0.00
  HS02004792HS02004799    1.00   0.00  0.00  0.00  0.99  0.01  0.00  0.00  0.98  0.00
  HS02004788HS02004792    1.00   0.00  0.00  0.00  0.99  0.01  0.00  0.00  0.98  0.00
  HS02004785HS02004788    1.00   0.00  0.00  0.00  1.00  0.00  0.00  0.00  0.00  0.00
  HS02004777HS02004785    1.00   0.00  0.00  0.00  1.00  0.00  0.00  0.00  0.15  0.00
  HS02004480HS02004478    1.00   0.04  0.00  0.00  0.63  0.00  0.00  0.33  0.00  0.00
  HS02004479HS02004480    1.00   0.03  0.00  0.00  0.97  0.00  0.00  0.00  0.13  0.00
  HS02004862HS02004870    1.00   0.00  0.00  0.00  1.00  0.00  0.00  0.00  0.06  0.00
  HS02004848HS02004852    1.00   0.04  0.00  0.00  0.96  0.00  0.00  0.00  0.64  0.00
  HS02004856HS02004862    1.00   0.00  0.05  0.00  0.95  0.00  0.00  0.00  0.79  0.00
  HS02004852HS02004856    1.00   0.04  0.00  0.00  0.96  0.00  0.00  0.00  0.81  0.00
  HS02004802HS02004478    1.00   0.04  0.00  0.00  0.96  0.00  0.00  0.00  0.03  0.00
  HS02004478WS02006287    1.00   0.05  0.00  0.00  0.70  0.26  0.00  0.00  0.66  0.00
  HS02004817HS02004807    1.00   0.00  0.04  0.00  0.96  0.00  0.00  0.00  0.01  0.00
  HS02004807HS02004802    1.00   0.04  0.00  0.00  0.96  0.00  0.00  0.00  0.00  0.00
  YS02001759YS02001757    1.00   0.00  0.00  0.00  1.00  0.00  0.00  0.00  0.17  0.00
  YS02001762YS02001759    1.00   0.00  0.00  0.00  1.00  0.00  0.00  0.00  0.04  0.00
  YS02001765YS02001762    1.00   0.00  0.00  0.00  1.00  0.00  0.00  0.00  0.17  0.00
  YS02001770YS02001767    1.00   0.00  0.00  0.00  1.00  0.00  0.00  0.00  0.00  0.00
  YS02001774YS02001770    1.00   0.00  0.04  0.00  0.96  0.00  0.00  0.00  0.04  0.00
  YS02001779YS02001774    1.00   0.00  0.00  0.00  1.00  0.00  0.00  0.00  0.22  0.00
  YS02001649YS02001757    1.00   0.00  0.00  0.00  1.00  0.00  0.00  0.00  0.17  0.00
  YS02001767YS02001765    1.00   0.00  0.00  0.00  1.00  0.00  0.00  0.00  0.01  0.00
  YS02006561YS02001783    1.00   0.05  0.00  0.00  0.46  0.49  0.00  0.00  0.54  0.00
  YS02001783YS02001784    1.00   0.00  0.05  0.00  0.95  0.00  0.00  0.00  0.01  0.00
  YS02001784YS02001785    1.00   0.00  0.00  0.00  1.00  0.00  0.00  0.00  0.21  0.00
  YS02001788YS02001790    1.00   0.00  0.00  0.00  0.46  0.54  0.00  0.00  0.47  0.00
  YS02001790YS02001791    1.00   0.00  0.00  0.00  0.42  0.58  0.00  0.00  0.38  0.00
  YS02001791YS02001793    1.00   0.00  0.00  0.00  0.42  0.58  0.00  0.00  0.01  0.00
  YS02001910YS02001907    1.00   0.00  0.00  0.00  0.98  0.00  0.00  0.02  0.13  0.00
  YS02001786YS02001788    1.00   0.00  0.00  0.00  0.48  0.52  0.00  0.00  0.00  0.00
  YS02001915YS02001910    1.00   0.00  0.00  0.00  0.99  0.01  0.00  0.00  0.19  0.00
  YS02001918YS02001915    1.00   0.00  0.01  0.00  0.98  0.01  0.00  0.00  0.56  0.00
  YS02001923YS02001920    1.00   0.00  0.00  0.00  1.00  0.00  0.00  0.00  0.83  0.00
  YS02001926YS02001923    1.00   0.00  0.03  0.00  0.19  0.00  0.78  0.00  0.00  0.00
  YS02001929YS02001926    1.00   0.00  0.04  0.00  0.96  0.00  0.00  0.00  0.76  0.00
  YS02001920YS02001918    1.00   0.00  0.01  0.00  0.99  0.00  0.00  0.00  0.00  0.00
  YS02001629YS02163301    1.00   0.05  0.00  0.00  0.95  0.00  0.00  0.00  0.00  0.00
  YS02001619YS02001622    1.00   0.04  0.00  0.00  0.96  0.00  0.00  0.00  0.00  0.00
  YS02001622YS02001625    1.00   0.04  0.00  0.00  0.96  0.00  0.00  0.00  0.08  0.00
  YS02001625YS02001629    1.00   0.04  0.02  0.00  0.93  0.00  0.02  0.00  0.00  0.00
  YS02163301YS02001633    1.00   0.00  0.05  0.00  0.95  0.00  0.00  0.00  0.00  0.00
  YS02163601YS02164001    1.00   0.00  0.03  0.00  0.97  0.00  0.00  0.00  0.00  0.00
  YS02164001YS02001641    1.00   0.01  0.02  0.00  0.97  0.00  0.00  0.00  0.06  0.00
  YS02001641YS02001644    1.00   0.00  0.01  0.00  0.99  0.00  0.00  0.00  0.00  0.00
  YS02001647YS02001649    1.00   0.00  0.05  0.00  0.95  0.00  0.00  0.00  0.01  0.00
  YS02006553YS02006556    1.00   0.01  0.00  0.00  0.99  0.00  0.00  0.00  0.03  0.00
  YS02006556YS02006558    1.00   0.00  0.00  0.00  1.00  0.00  0.00  0.00  0.00  0.00
  YSB6556YSB1171          1.00   0.03  0.01  0.00  0.96  0.00  0.00  0.00  0.00  0.00
  YS02001907YS02006553    1.00   0.00  0.02  0.00  0.98  0.00  0.00  0.00  0.00  0.00
  YS02006558YS02006561    1.00   0.05  0.00  0.00  0.20  0.74  0.00  0.00  0.45  0.00
  YS02001633YS02163601    1.00   0.00  0.01  0.00  0.99  0.00  0.00  0.00  0.16  0.00
  YS02001644YS02001647    1.00   0.00  0.05  0.00  0.95  0.00  0.00  0.00  0.00  0.00
  YS02001745YS02001748    1.00   0.00  0.00  0.00  0.88  0.01  0.00  0.11  0.04  0.00
  YS02001748YS02001751    1.00   0.00  0.00  0.00  0.97  0.03  0.00  0.00  0.15  0.00
  YS02001751YS02001754    1.00   0.00  0.00  0.00  0.94  0.00  0.00  0.06  0.02  0.00
  YS02001754YS02001757    1.00   0.00  0.00  0.00  0.99  0.01  0.00  0.00  0.21  0.00
  YS02001882YS02001884    1.00   0.05  0.00  0.00  0.95  0.00  0.00  0.00  0.00  0.00
  YS02001884YS02001887    1.00   0.03  0.01  0.00  0.96  0.00  0.00  0.00  0.00  0.00
  YS02001890YS02001895    1.00   0.00  0.05  0.00  0.95  0.00  0.00  0.00  0.00  0.00
  YS02001895YS02001898    1.00   0.05  0.00  0.00  0.94  0.00  0.01  0.00  0.00  0.00
  YS02001898YS02001901    1.00   0.05  0.00  0.00  0.95  0.00  0.00  0.00  0.03  0.00
  YS02001901YS02001904    1.00   0.05  0.00  0.00  0.95  0.00  0.00  0.00  0.00  0.00
  YS02001904YS02001907    1.00   0.00  0.05  0.00  0.95  0.00  0.00  0.00  0.00  0.00
  YS02001887YS02001890    1.00   0.00  0.00  0.00  0.98  0.00  0.02  0.00  0.00  0.00
  YS02001652YS02001649    1.00   0.00  0.00  0.00  1.00  0.00  0.00  0.00  0.19  0.00
  YS02001655YS02001652    1.00   0.00  0.00  0.00  0.94  0.00  0.00  0.06  0.03  0.00
  YS02001658YS02001655    1.00   0.00  0.04  0.00  0.93  0.03  0.00  0.00  0.13  0.00
  YS02001661YS02001658    1.00   0.04  0.00  0.00  0.88  0.08  0.00  0.00  0.08  0.00
  YS02001664YS02001661    1.00   0.04  0.00  0.00  0.86  0.10  0.00  0.00  0.22  0.00
  YSB1154YSB6556          1.00   0.04  0.00  0.00  0.96  0.00  0.00  0.00  0.02  0.00
  YSB1174YSB1171          1.00   0.03  0.01  0.00  0.97  0.00  0.00  0.00  0.00  0.00
  YSB1171HS02004479       1.00   0.03  0.00  0.00  0.97  0.00  0.00  0.00  0.11  0.00
  HS02004881HS02006253    1.00   0.03  0.00  0.00  0.73  0.01  0.00  0.23  0.58  0.00
  YS02001793JiankangQianchi    1.00   0.00  0.00  0.00  0.59  0.40  0.00  0.00  0.15  0.00
  YS02001757CaochengTiaoxuchi    1.00   0.00  0.07  0.00  0.91  0.02  0.00  0.00  0.00  0.00
  WSF200WS02003060        1.00   0.00  0.04  0.00  0.77  0.19  0.00  0.00  0.36  0.00
  1                       1.00   0.00  0.00  0.00  0.00  1.00  0.00  0.00  0.32  0.00
  2                       1.00   0.68  0.00  0.00  0.00  0.31  0.00  0.00  0.05  0.00
  3                       1.00   0.07  0.00  0.00  0.00  0.93  0.00  0.00  0.25  0.00
  4                       1.00   1.00  0.00  0.00  0.00  0.00  0.00  0.00  0.00  0.00
  
  
  *************************
  Conduit Surcharge Summary
  *************************
  
  ----------------------------------------------------------------------------
                                                           Hours        Hours 
                         --------- Hours Full --------   Above Full   Capacity
  Conduit                Both Ends  Upstream  Dnstream   Normal Flow   Limited
  ----------------------------------------------------------------------------
  WS02006229WS02006228        1.96      2.06      1.96      4.43         1.96
  WS02006256WS02006235        6.05      6.05      7.83      4.27         0.01
  WS02006252WS02006251        0.47      0.47      0.72      0.65         0.01
  WS02006251WS02006249        0.01      0.01      0.01      0.46         0.01
  WS02006249WS02006248        0.01      0.01      0.01      4.15         0.01
  WS02006248WS02006247        0.01      0.01      0.10      0.01         0.01
  WS02006247WS02006245        0.12      0.14      0.12      4.60         0.12
  WS02006245WS02006243        0.17      0.17      0.39      0.01         0.01
  WS02006243WS02006242        0.47      0.47      1.46      0.01         0.01
  WS02006242WS02006240        0.93      0.93      1.69      0.70         0.01
  WS02006240WS02006239        0.97      0.97      1.14      0.01         0.01
  WS02006239WS02006238        1.70      1.70      1.81      0.01         0.01
  WS02006238WS02006235        1.74      1.74      1.95      0.01         0.01
  WS02006235WS02006234        1.07      1.07      1.63      6.07         0.01
  WS02006234WS02006232        1.16      1.16      2.02      0.01         0.01
  WS02006232WS02006231        0.90      0.90      2.02      0.01         0.01
  WS02006231WS02006230        0.75      0.75      0.94      6.06         0.01
  WS02006230WS02006229        2.62      4.19      2.62      6.17         2.62
  WS02006228WS02006109        2.01      2.21      2.01      5.03         2.01
  WS02006116WS02004401        0.31      0.31      0.32      0.23         0.23
  WS02006115WS02006116        0.15      0.15      0.15      0.08         0.09
  WS02006112WS02006115        0.12      0.12      1.23      0.01         0.01
  WS02006111WS02006112        0.01      0.01      4.53      0.01         0.01
  WS02006110WS02006113        0.01      0.01      2.13      0.01         0.01
  WS02006109WS02006110        1.09      1.09      2.21      1.10         0.01
  WS02004411WS02004412        0.01      0.01      0.01      0.29         0.01
  WS02004401WS02004402        0.32      0.32      0.38      0.01         0.01
  WS02004410WS02004411        0.01      0.01      0.01      0.21         0.01
  WS02004409WS02004410        0.01      0.01      0.01      0.10         0.01
  WS02004406WS02004407        0.01      0.01      0.62      0.01         0.01
  WS02004405WS02004406        0.62      0.71      0.62      1.16         0.62
  WS02004404WS02004405        0.71      0.79      0.71      5.90         0.71
  WS02004403WS02004404        0.39      0.39      0.79      0.01         0.01
  WS02004402WS02004403        0.38      0.38      0.39      0.30         0.31
  WS02003072WS02003073        0.01      0.01      0.01      4.67         0.01
  HS02004876HS02004881        0.01      0.01      0.01      0.17         0.01
  HS02004785HS02004788        0.01      0.01      0.01      0.10         0.01
  HS02004480HS02004478        0.01      0.01      0.01      0.52         0.01
  YS02001759YS02001757        5.54      5.54      5.62      0.01         0.01
  YS02001762YS02001759        5.51      5.51      5.54      0.01         0.01
  YS02001765YS02001762        5.49      5.49      5.51      0.01         0.01
  YS02001770YS02001767        5.46      5.47      5.47      0.31         0.75
  YS02001774YS02001770        5.45      5.45      5.50      0.01         0.01
  YS02001779YS02001774        5.28      5.28      5.50      0.01         0.01
  YS02001649YS02001757        5.52      5.52      5.62      0.01         0.01
  YS02001767YS02001765        5.47      5.47      5.49      0.01         0.01
  YS02006561YS02001783        0.81      0.81      1.37      0.01         0.01
  YS02001783YS02001784        1.35      1.37      1.41      1.36         1.16
  YS02001784YS02001785        1.27      1.41      1.27      2.22         1.26
  YS02001788YS02001790        1.20      1.20      2.46      0.01         0.01
  YS02001790YS02001791        2.46      2.46      2.49      0.78         0.65
  YS02001791YS02001793        2.49      2.49      2.57      0.01         0.01
  YS02001910YS02001907        1.20      1.20      1.67      0.01         0.01
  YS02001786YS02001788        1.20      1.27      1.20      1.84         1.19
  YS02001915YS02001910        0.98      0.98      1.20      0.01         0.01
  YS02001918YS02001915        0.72      0.72      0.98      0.01         0.01
  YS02001923YS02001920        0.56      0.56      0.76      0.01         0.01
  YS02001920YS02001918        0.72      0.72      0.76      0.01         0.01
  YS02001629YS02163301        5.45      5.45      5.46      0.01         0.01
  YS02001619YS02001622        5.15      5.15      5.16      0.01         0.01
  YS02001622YS02001625        5.16      5.16      5.34      0.01         0.01
  YS02001625YS02001629        5.15      5.15      5.34      0.01         0.01
  YS02163301YS02001633        5.46      5.46      5.49      0.01         0.01
  YS02163601YS02164001        5.49      5.49      5.52      0.01         0.01
  YS02164001YS02001641        5.49      5.49      5.50      0.01         0.02
  YS02001641YS02001644        5.50      5.50      5.50      1.49         1.51
  YS02001647YS02001649        5.30      5.30      5.52      0.01         0.01
  YS02006553YS02006556        1.41      1.41      1.73      0.01         0.01
  YS02006556YS02006558        1.54      1.54      1.80      0.01         0.01
  YS02001907YS02006553        2.24      2.24      2.44      0.01         0.01
  YS02006558YS02006561        1.01      1.38      1.01      2.09         1.01
  YS02001633YS02163601        5.48      5.48      5.52      0.01         0.01
  YS02001644YS02001647        5.30      5.30      5.50      0.01         0.01
  YS02001745YS02001748        0.01      0.01      5.03      0.01         0.01
  YS02001748YS02001751        5.05      5.05      5.12      0.01         0.01
  YS02001751YS02001754        5.12      5.12      5.28      0.01         0.01
  YS02001754YS02001757        5.30      5.30      5.62      0.01         0.01
  YS02001882YS02001884        0.99      0.99      1.03      0.01         0.01
  YS02001884YS02001887        1.09      1.09      1.12      0.01         0.01
  YS02001890YS02001895        0.96      0.96      1.22      0.01         0.01
  YS02001895YS02001898        0.95      0.95      0.96      0.01         0.01
  YS02001898YS02001901        0.97      0.97      1.08      0.01         0.01
  YS02001901YS02001904        1.05      1.05      1.08      0.01         0.01
  YS02001904YS02001907        1.05      1.05      1.76      0.01         0.01
  YS02001887YS02001890        1.15      1.15      1.18      0.07         0.01
  YS02001652YS02001649        5.31      5.31      5.52      0.01         0.01
  YS02001655YS02001652        5.15      5.15      5.29      0.01         0.01
  YS02001658YS02001655        5.05      5.05      5.15      0.01         0.01
  YS02001661YS02001658        0.24      0.24      5.05      0.01         0.01
  YS02001664YS02001661        0.01      0.01      1.25      0.01         0.01
  YS02001793JiankangQianchi        2.55      2.55      3.46      0.01         0.01
  YS02001757CaochengTiaoxuchi        4.84      4.84      5.62      0.01         0.01
  
  
  ***************
  Pumping Summary
  ***************
  
  ---------------------------------------------------------------------------------------------------------
                                                  Min       Avg       Max     Total     Power    % Time Off
                        Percent   Number of      Flow      Flow      Flow    Volume     Usage    Pump Curve
  Pump                 Utilized   Start-Ups       LPS       LPS       LPS  10^6 ltr     Kw-hr    Low   High
  ---------------------------------------------------------------------------------------------------------
  CC-Pump-1               65.90           3      0.00    159.50    200.00     2.962      3.62    0.0   11.9
  CC-Pump-2               25.53           4      0.00    116.08    200.00     0.840      1.44    0.0   14.2
  JK-Pump-1               80.85           4      0.00    193.94    300.00     3.269     43.23    0.0    0.0
  JK-Pump-2               95.74           1      0.00    237.08    300.00     5.019     52.56    0.0    0.0
  XR-Pump-1               51.06           6      0.00     65.44     95.00     0.941      7.66    0.0    0.0
  XR-Pump-2               65.95           7      0.00     67.68     95.00     1.311     19.94    0.0    0.0
  XR-Pump-3               93.61           4      0.00     82.35     95.00     2.252     26.94    0.0    0.0
  XR-Pump-4               97.87           4      0.00     84.29     95.00     2.394     26.57    0.0    0.0
  

  Analysis begun on:  Thu Dec 23 16:18:49 2021
  Analysis ended on:  Thu Dec 23 16:18:54 2021
  Total elapsed time: 00:00:05