
  EPA STORM WATER MANAGEMENT MODEL - VERSION 5.1 (Build 5.3.0.dev0)
  --------------------------------------------------------------

  WARNING 04: minimum elevation drop used for Conduit WS02004404WS02004405
  WARNING 03: negative offset ignored for Link YS02001904YS02001907
  
  *********************************************************
  NOTE: The summary statistics displayed in this report are
  based on results found at every computational time step,  
  not just on results from each reporting time step.
  *********************************************************
  
  ****************
  Analysis Options
  ****************
  Flow Units ............... LPS
  Process Models:
    Rainfall/Runoff ........ YES
    RDII ................... NO
    Snowmelt ............... NO
    Groundwater ............ NO
    Flow Routing ........... YES
    Ponding Allowed ........ NO
    Water Quality .......... NO
  Infiltration Method ...... HORTON
  Flow Routing Method ...... DYNWAVE
  Surcharge Method ......... EXTRAN
  Starting Date ............ 08/28/2015 08:00:00
  Ending Date .............. 08/28/2015 15:50:00
  Antecedent Dry Days ...... 8.0
  Report Time Step ......... 00:01:00
  Wet Time Step ............ 00:01:00
  Dry Time Step ............ 00:01:00
  Routing Time Step ........ 5.00 sec
  Variable Time Step ....... YES
  Maximum Trials ........... 8
  Number of Threads ........ 4
  Head Tolerance ........... 0.001500 m
  
  
  **************************        Volume         Depth
  Runoff Quantity Continuity     hectare-m            mm
  **************************     ---------       -------
  Total Precipitation ......         7.641        16.729
  Evaporation Loss .........         0.000         0.000
  Infiltration Loss ........         1.880         4.117
  Surface Runoff ...........         4.668        10.221
  Final Storage ............         1.093         2.393
  Continuity Error (%) .....        -0.013
  
  
  **************************        Volume        Volume
  Flow Routing Continuity        hectare-m      10^6 ltr
  **************************     ---------     ---------
  Dry Weather Inflow .......         0.616         6.165
  Wet Weather Inflow .......         4.667        46.670
  Groundwater Inflow .......         0.000         0.000
  RDII Inflow ..............         0.000         0.000
  External Inflow ..........         0.102         1.024
  External Outflow .........         2.186        21.859
  Flooding Loss ............         2.673        26.730
  Evaporation Loss .........         0.000         0.000
  Exfiltration Loss ........         0.000         0.000
  Initial Stored Volume ....         0.076         0.761
  Final Stored Volume ......         0.651         6.514
  Continuity Error (%) .....        -0.886
  
  
  *************************
  Highest Continuity Errors
  *************************
  Node HS02004842 (12.71%)
  Node YS02001884 (9.82%)
  Node JK-storage (-3.97%)
  Node HS02004817 (2.32%)
  Node YSB1171 (2.18%)
  
  
  ***************************
  Time-Step Critical Elements
  ***************************
  Link 3 (50.51%)
  Link WS02006252WS02006251 (42.92%)
  Link WS02006238WS02006235 (1.82%)
  
  
  ********************************
  Highest Flow Instability Indexes
  ********************************
  Link YS02163301YS02001633 (43)
  Link YS02163601YS02164001 (43)
  Link YS02001629YS02163301 (41)
  Link YS02001619YS02001622 (40)
  Link YS02164001YS02001641 (39)
  
  
  *************************
  Routing Time Step Summary
  *************************
  Minimum Time Step           :     0.50 sec
  Average Time Step           :     0.75 sec
  Maximum Time Step           :     5.00 sec
  Percent in Steady State     :    -0.00
  Average Iterations per Step :     4.42
  Percent Not Converging      :    17.06
  
  
  ***************************
  Subcatchment Runoff Summary
  ***************************
  
  ------------------------------------------------------------------------------------------------------------------------------
                            Total      Total      Total      Total     Imperv       Perv      Total       Total     Peak  Runoff
                           Precip      Runon       Evap      Infil     Runoff     Runoff     Runoff      Runoff   Runoff   Coeff
  Subcatchment                 mm         mm         mm         mm         mm         mm         mm    10^6 ltr      LPS
  ------------------------------------------------------------------------------------------------------------------------------
  sub0                      16.73       0.00       0.00       0.97      14.29       0.20      14.50        0.01     3.66   0.867
  sub1                      16.73       0.00       0.00       1.58      13.63       0.26      13.89        0.09    24.51   0.830
  sub2                      16.73       0.00       0.00       5.80       9.63       0.39      10.02        0.09    22.91   0.599
  sub3                      16.73       0.00       0.00       5.88       9.59       0.31       9.90        0.22    50.49   0.592
  sub4                      16.73       0.00       0.00       1.65      13.47       0.19      13.66        0.28    60.01   0.817
  sub5                      16.73       0.00       0.00       0.99      14.24       0.18      14.42        0.16    43.61   0.862
  sub7                      16.73       0.00       0.00       1.26      13.97       0.24      14.21        0.05    13.82   0.849
  sub8                      16.73       0.00       0.00       1.27      13.96       0.23      14.19        0.09    25.44   0.848
  sub9                      16.73       0.00       0.00       1.27      13.96       0.23      14.19        0.07    19.02   0.848
  sub10                     16.73       0.00       0.00       1.13      14.10       0.21      14.30        0.16    42.73   0.855
  sub11                     16.73       0.00       0.00       1.12      14.11       0.21      14.33        0.17    47.25   0.857
  sub12                     16.73       0.00       0.00       1.83      13.37       0.35      13.71        0.12    35.87   0.820
  sub14                     16.73       0.00       0.00       1.27      13.95       0.23      14.19        0.14    37.43   0.848
  sub15                     16.73       0.00       0.00       4.53      10.73       0.49      11.22        0.19    51.47   0.671
  sub16                     16.73       0.00       0.00       4.88      10.29       0.64      10.93        0.11    32.57   0.653
  sub17                     16.73       0.00       0.00       4.74      10.44       0.61      11.05        0.09    26.81   0.661
  sub22                     16.73       0.00       0.00       6.60       8.75       0.59       9.34        0.59   160.16   0.558
  sub23                     16.73       0.00       0.00       5.59       9.67       0.60      10.27        0.49   134.74   0.614
  sub60                     16.73       0.00       0.00       1.94      11.65       0.06      11.71        3.55   386.89   0.700
  sub61                     16.73       0.00       0.00       2.75      11.65       0.09      11.73        3.62   476.87   0.701
  sub62                     16.73       0.00       0.00       1.26      12.72       0.07      12.79        3.93   491.27   0.765
  sub63                     16.73       0.00       0.00       4.75      10.14       0.10      10.23        3.10   437.54   0.612
  sub64                     16.73       0.00       0.00       2.45      11.19       0.06      11.26        3.42   367.58   0.673
  sub65                     16.73       0.00       0.00       2.11      11.40       0.06      11.46        3.52   372.98   0.685
  sub66                     16.73       0.00       0.00       4.79       9.55       0.06       9.61        2.95   336.52   0.575
  sub67                     16.73       0.00       0.00       1.24      13.25       0.09      13.35        4.12   605.48   0.798
  sub68                     16.73       0.00       0.00       2.25      12.20       0.10      12.30        3.78   521.64   0.735
  sub69                     16.73       0.00       0.00       2.37      12.50       0.14      12.64        2.95   482.20   0.755
  sub70                     16.73      12.90       0.00       8.98      17.16       1.09      18.25        4.18   460.88   0.616
  sub71                     16.73       0.00       0.00       1.27      12.46       0.07      12.53        2.96   345.19   0.749
  sub72                     16.73       0.00       0.00       1.14      10.39       0.03      10.43        2.12   185.81   0.623
  sub73                     16.73      17.77       0.00       9.78      19.72       1.38      21.10        4.96   482.28   0.612
  sub74                     16.73       0.00       0.00      12.48       3.71       0.07       3.78        1.51   261.10   0.226
  
  
  ******************
  Node Depth Summary
  ******************
  
  ---------------------------------------------------------------------------------
                                 Average  Maximum  Maximum  Time of Max    Reported
                                   Depth    Depth      HGL   Occurrence   Max Depth
  Node                 Type       Meters   Meters   Meters  days hr:min      Meters
  ---------------------------------------------------------------------------------
  WS02001211           JUNCTION     0.63     0.76     5.60     0  02:05        0.76
  WS02001212           JUNCTION     0.37     0.50     5.56     0  02:05        0.50
  WS02001213           JUNCTION     0.61     0.78     5.54     0  02:04        0.78
  WS02003069           JUNCTION     0.45     0.65     5.23     0  02:04        0.65
  WS02003072           JUNCTION     0.51     0.70     5.07     0  02:04        0.70
  WS02003073           JUNCTION     0.31     0.43     4.50     0  02:05        0.43
  WS02003060           JUNCTION     0.40     0.57     5.50     0  02:03        0.57
  WS02003066           JUNCTION     0.25     0.36     5.91     0  01:59        0.36
  WS02003059           JUNCTION     0.67     0.84     5.52     0  02:04        0.84
  WS02003067           JUNCTION     0.60     0.79     6.11     0  01:59        0.79
  WS02004401           JUNCTION     0.73     1.11     7.11     0  01:56        1.11
  WS02004402           JUNCTION     0.76     1.11     7.07     0  01:56        1.11
  WS02004403           JUNCTION     0.78     1.10     7.03     0  01:56        1.10
  WS02004404           JUNCTION     0.85     1.16     7.01     0  01:56        1.16
  WS02004406           JUNCTION     0.85     1.11     6.94     0  01:56        1.11
  WS02004409           JUNCTION     0.55     0.86     6.63     0  01:58        0.86
  WS02004410           JUNCTION     0.56     0.86     6.58     0  01:59        0.86
  WS02004411           JUNCTION     0.57     0.85     6.53     0  01:59        0.85
  WS02004412           JUNCTION     0.58     0.84     6.48     0  01:59        0.84
  WS02004413           JUNCTION     0.74     0.98     6.45     0  01:59        0.98
  WS02004405           JUNCTION     0.85     1.14     6.99     0  01:56        1.14
  WS02006109           JUNCTION     0.82     1.27     7.89     0  01:57        1.26
  WS02006110           JUNCTION     0.80     1.11     7.70     0  01:56        1.11
  WS02006111           JUNCTION     0.26     0.61     7.32     0  01:56        0.61
  WS02006112           JUNCTION     0.92     1.39     7.28     0  01:56        1.39
  WS02006113           JUNCTION     0.38     0.62     7.51     0  01:57        0.62
  WS02006115           JUNCTION     0.63     1.07     7.21     0  01:56        1.07
  WS02006116           JUNCTION     0.71     1.12     7.16     0  01:56        1.12
  WS02006230           JUNCTION     0.81     1.39     8.14     0  02:00        1.39
  WS02006231           JUNCTION     0.55     1.03     8.15     0  01:59        1.02
  WS02006232           JUNCTION     0.69     1.12     8.16     0  01:52        1.11
  WS02006234           JUNCTION     0.60     1.04     8.20     0  01:44        1.01
  WS02006235           JUNCTION     0.63     1.02     8.18     0  02:00        1.02
  WS02006238           JUNCTION     0.65     1.04     8.19     0  02:01        1.03
  WS02006240           JUNCTION     0.54     0.94     8.23     0  01:52        0.90
  WS02006242           JUNCTION     0.59     1.35     8.62     0  01:44        0.93
  WS02006243           JUNCTION     0.47     0.81     8.23     0  01:52        0.79
  WS02006245           JUNCTION     0.44     0.77     8.26     0  01:52        0.74
  WS02006247           JUNCTION     0.46     0.77     8.27     0  01:52        0.73
  WS02006248           JUNCTION     0.40     0.65     8.23     0  02:00        0.65
  WS02006249           JUNCTION     0.43     0.64     8.24     0  02:00        0.64
  WS02006239           JUNCTION     0.61     1.00     8.21     0  01:52        0.97
  WS02006251           JUNCTION     0.41     0.63     8.30     0  01:57        0.63
  WS02006252           JUNCTION     0.33     0.59     8.83     0  04:00        0.59
  WS02006253           JUNCTION     0.44     0.66     8.30     0  01:58        0.66
  WS02006256           JUNCTION     1.09     2.35     9.28     0  00:00        1.24
  WS02004138           JUNCTION     0.14     0.17     7.42     0  00:00        0.17
  WS02004407           JUNCTION     0.24     0.37     6.68     0  01:57        0.37
  WS02006228           JUNCTION     0.84     1.39     8.04     0  01:55        1.38
  WS02006229           JUNCTION     0.82     1.42     8.12     0  01:56        1.42
  WS02006280           JUNCTION     0.09     0.25     8.52     0  01:55        0.25
  WS02006284           JUNCTION     0.39     0.64     9.04     0  01:55        0.64
  WS02006287           JUNCTION     0.13     0.38     9.33     0  01:54        0.38
  WSF200               JUNCTION     0.25     0.40     5.63     0  02:03        0.40
  HS02004901           JUNCTION     0.15     0.36    10.18     0  01:52        0.36
  HS02004881           JUNCTION     0.01     0.05     9.08     0  01:54        0.05
  HS02004876           JUNCTION     0.05     0.16     9.19     0  01:55        0.16
  HS02004870           JUNCTION     0.02     0.09     9.38     0  01:55        0.09
  HS02004862           JUNCTION     0.03     0.11     9.49     0  01:55        0.11
  HS02004856           JUNCTION     0.09     0.15     9.58     0  01:55        0.15
  HS02004852           JUNCTION     0.02     0.07     9.59     0  01:55        0.07
  HS02004848           JUNCTION     0.02     0.07     9.67     0  01:55        0.07
  HS02004842           JUNCTION     0.34     0.40     9.67     0  01:55        0.40
  HS02004837           JUNCTION     0.04     0.09     9.67     0  01:55        0.09
  HS02004830           JUNCTION     0.05     0.10     9.57     0  01:56        0.10
  HS02004824           JUNCTION     0.03     0.12     9.53     0  01:55        0.12
  HS02004817           JUNCTION     0.47     0.69     9.53     0  01:55        0.69
  HS02004807           JUNCTION     0.15     0.36     9.53     0  01:55        0.36
  HS02004802           JUNCTION     0.19     0.39     9.52     0  01:55        0.39
  HS02004799           JUNCTION     0.15     0.45     9.66     0  01:53        0.45
  HS02004792           JUNCTION     0.05     0.20     9.73     0  01:52        0.20
  HS02004788           JUNCTION     0.04     0.15    10.05     0  01:53        0.15
  HS02004785           JUNCTION     0.07     0.23    10.14     0  01:52        0.23
  HS02004777           JUNCTION     0.17     0.37    10.17     0  01:52        0.37
  HS02004770           JUNCTION     0.14     0.35    10.18     0  01:52        0.35
  HS02004480           JUNCTION     0.11     0.37     9.61     0  01:53        0.37
  HS02004479           JUNCTION     0.15     0.41     9.61     0  01:53        0.41
  HS02004478           JUNCTION     0.08     0.27     9.50     0  01:54        0.27
  YS02001745           JUNCTION     0.78     0.93     8.44     0  02:49        0.93
  YS02001748           JUNCTION     1.19     1.37     8.45     0  02:47        1.36
  YS02001751           JUNCTION     1.38     1.74     8.62     0  01:48        1.55
  YS02001754           JUNCTION     1.63     1.84     8.45     0  02:44        1.82
  YS02001762           JUNCTION     1.83     2.04     8.44     0  02:22        2.03
  YS02001765           JUNCTION     1.79     1.99     8.44     0  02:46        1.98
  YS02001767           JUNCTION     1.75     1.95     8.44     0  02:44        1.94
  YS02001770           JUNCTION     1.75     1.93     8.42     0  02:41        1.92
  YS02001774           JUNCTION     1.81     1.99     8.41     0  01:47        1.97
  YS02001779           JUNCTION     1.55     1.68     8.37     0  01:47        1.68
  YS02001882           JUNCTION     0.75     1.71     8.42     0  01:55        1.62
  YS02001884           JUNCTION     0.85     1.79     8.40     0  01:55        1.72
  YS02001759           JUNCTION     1.87     2.08     8.45     0  02:21        2.07
  YS02001887           JUNCTION     0.93     1.83     8.37     0  01:55        1.80
  YS02001890           JUNCTION     0.95     1.81     8.32     0  01:55        1.81
  YS02001898           JUNCTION     0.72     1.63     8.37     0  01:55        1.56
  YS02001901           JUNCTION     0.84     1.73     8.34     0  01:55        1.67
  YS02001904           JUNCTION     0.81     1.69     8.32     0  01:55        1.63
  YS02001907           JUNCTION     1.14     1.96     8.25     0  01:55        1.96
  YS02001910           JUNCTION     0.93     1.95     8.46     0  01:58        1.78
  YS02001915           JUNCTION     0.73     1.89     8.61     0  01:58        1.59
  YS02001918           JUNCTION     0.47     1.81     8.88     0  01:58        1.30
  YS02001619           JUNCTION     1.34     1.61     8.54     0  01:47        1.47
  YS02001629           JUNCTION     1.69     1.85     8.40     0  01:47        1.85
  YS02001641           JUNCTION     1.79     1.94     8.37     0  01:51        1.93
  YS02001644           JUNCTION     1.79     1.92     8.35     0  01:51        1.92
  YS02001652           JUNCTION     1.65     2.16     8.76     0  02:09        1.90
  YS02001655           JUNCTION     1.41     2.20     9.05     0  02:09        1.72
  YS02001920           JUNCTION     0.57     2.14     9.15     0  01:58        1.38
  YS02001923           JUNCTION     0.39     2.03     9.29     0  01:58        1.16
  YS02001926           JUNCTION     0.40     1.79     9.23     0  01:58        1.02
  YS02001929           JUNCTION     0.25     0.98     8.67     0  01:58        0.85
  YS02001658           JUNCTION     1.13     2.30     9.44     0  02:12        1.53
  YS02001661           JUNCTION     0.89     2.46     9.86     0  02:11        1.41
  YS02001664           JUNCTION     0.40     0.57     8.49     0  03:48        0.56
  YS02001622           JUNCTION     1.36     1.62     8.52     0  01:48        1.50
  YS02001633           JUNCTION     1.79     1.95     8.41     0  01:50        1.94
  YS02001649           JUNCTION     1.84     2.05     8.44     0  01:54        2.05
  YS02001757           JUNCTION     1.96     2.18     8.44     0  02:40        2.16
  YS02001895           JUNCTION     0.71     1.61     8.36     0  01:55        1.56
  YS02001625           JUNCTION     1.64     1.78     8.38     0  01:46        1.78
  YS02163301           JUNCTION     1.73     1.92     8.44     0  01:47        1.88
  YS02163601           JUNCTION     1.84     1.99     8.39     0  01:51        1.98
  YS02164001           JUNCTION     1.77     1.92     8.38     0  01:51        1.91
  YS02001647           JUNCTION     1.63     1.81     8.42     0  01:54        1.79
  YSB1154              JUNCTION     0.29     0.56     9.62     0  01:53        0.56
  YSB6556              JUNCTION     0.18     0.44     9.61     0  01:53        0.44
  YSB1174              JUNCTION     0.24     0.50     9.61     0  01:53        0.50
  YSB1171              JUNCTION     0.44     0.71     9.61     0  01:53        0.71
  YS02006553           JUNCTION     1.14     2.18     8.46     0  01:55        1.97
  YS02006561           JUNCTION     0.46     1.95     8.61     0  01:55        1.08
  YS02006556           JUNCTION     1.11     2.38     8.69     0  01:55        1.92
  YS02006558           JUNCTION     1.15     2.48     8.75     0  01:55        1.97
  YS02001783           JUNCTION     0.74     2.25     8.39     0  01:55        1.47
  YS02001784           JUNCTION     0.74     2.19     8.26     0  01:55        1.41
  YS02001786           JUNCTION     0.68     2.23     8.26     0  01:55        1.26
  YS02001788           JUNCTION     0.61     2.28     8.26     0  01:55        1.13
  YS02001790           JUNCTION     0.77     1.96     7.60     0  01:55        1.29
  YS02001791           JUNCTION     0.77     2.44     7.91     0  01:55        2.37
  YS02001793           JUNCTION     1.11     2.34     7.17     0  01:54        1.80
  WS02004139           JUNCTION     0.57     0.70     5.61     0  02:05        0.70
  WSC                  OUTFALL      0.31     0.43     1.10     0  02:05        0.43
  3                    OUTFALL      0.13     0.24     6.24     0  02:00        0.24
  4                    OUTFALL      0.02     0.14     7.14     0  02:00        0.14
  5                    OUTFALL      0.00     0.00     5.00     0  00:00        0.00
  JK-storage           STORAGE      3.93     5.80     6.60     0  01:55        5.80
  CC-storage           STORAGE      1.18     1.41     8.41     0  02:55        1.41
  XR-storage           STORAGE      7.21     7.72     5.72     0  02:10        7.72
  
  
  *******************
  Node Inflow Summary
  *******************
  
  -------------------------------------------------------------------------------------------------
                                  Maximum  Maximum                  Lateral       Total        Flow
                                  Lateral    Total  Time of Max      Inflow      Inflow     Balance
                                   Inflow   Inflow   Occurrence      Volume      Volume       Error
  Node                 Type           LPS      LPS  days hr:min    10^6 ltr    10^6 ltr     Percent
  -------------------------------------------------------------------------------------------------
  WS02001211           JUNCTION      7.35   294.42     0  02:27       0.207        6.02       0.485
  WS02001212           JUNCTION      0.00   296.30     0  02:27           0        5.99       0.285
  WS02001213           JUNCTION      0.00   297.77     0  02:26           0        5.98       0.324
  WS02003069           JUNCTION      0.32  1118.25     0  02:03     0.00902        15.4       0.156
  WS02003072           JUNCTION      0.00  1118.20     0  02:04           0        15.4       0.202
  WS02003073           JUNCTION      1.82  1120.00     0  02:04      0.0514        15.4       0.224
  WS02003060           JUNCTION     16.53  1117.94     0  02:03       0.466        15.4       0.148
  WS02003066           JUNCTION      0.00   811.77     0  01:59           0        9.04       0.041
  WS02003059           JUNCTION      0.00   299.97     0  02:26           0        5.96       0.540
  WS02003067           JUNCTION      0.00   811.74     0  01:59           0        9.05       0.089
  WS02004401           JUNCTION      0.00   812.09     0  01:57           0        9.25       0.198
  WS02004402           JUNCTION      0.00   812.09     0  01:57           0        9.23       0.190
  WS02004403           JUNCTION      0.00   812.09     0  01:57           0        9.21       0.175
  WS02004404           JUNCTION      0.16   812.24     0  01:57     0.00457         9.2       0.134
  WS02004406           JUNCTION      0.00   812.28     0  01:57           0        9.17       0.328
  WS02004409           JUNCTION      0.00   812.27     0  01:57           0        9.14       0.139
  WS02004410           JUNCTION      0.00   811.93     0  01:58           0        9.12       0.162
  WS02004411           JUNCTION      0.00   811.78     0  01:58           0        9.11       0.170
  WS02004412           JUNCTION      0.00   811.73     0  01:59           0        9.09       0.189
  WS02004413           JUNCTION      0.00   811.73     0  01:59           0        9.08       0.290
  WS02004405           JUNCTION      0.04   812.28     0  01:57     0.00107        9.19       0.204
  WS02006109           JUNCTION      1.23   788.05     0  01:57      0.0347        9.26       0.215
  WS02006110           JUNCTION      0.00   788.06     0  01:57           0        9.24       0.186
  WS02006111           JUNCTION      0.00   787.88     0  01:57           0        9.21       0.037
  WS02006112           JUNCTION     26.81   812.15     0  01:57      0.0948        9.31       0.265
  WS02006113           JUNCTION      0.00   788.02     0  01:57           0        9.22       0.083
  WS02006115           JUNCTION      0.00   812.16     0  01:57           0        9.28       0.178
  WS02006116           JUNCTION      0.00   812.08     0  01:57           0        9.26       0.176
  WS02006230           JUNCTION     10.28   393.36     0  07:22        0.29        6.57       0.195
  WS02006231           JUNCTION      0.00   385.81     0  07:22           0        6.28       0.118
  WS02006232           JUNCTION      0.00   385.78     0  07:22           0         6.3       0.226
  WS02006234           JUNCTION      0.00   385.81     0  07:21           0         6.3       0.086
  WS02006235           JUNCTION      0.00   387.27     0  07:21           0        6.36       0.147
  WS02006238           JUNCTION      0.00   305.81     0  07:21           0         4.3       0.140
  WS02006240           JUNCTION      0.00   320.75     0  04:01           0        4.29       0.227
  WS02006242           JUNCTION      0.00   336.60     0  04:01           0        4.29       0.300
  WS02006243           JUNCTION      0.00   344.73     0  04:01           0        4.29      -0.030
  WS02006245           JUNCTION      0.00   348.99     0  04:01           0        4.29       0.227
  WS02006247           JUNCTION      0.00   352.97     0  04:01           0         4.3       0.154
  WS02006248           JUNCTION      0.00   356.66     0  04:00           0         4.3       0.076
  WS02006249           JUNCTION      0.00   391.83     0  04:00           0        4.74       0.233
  WS02006239           JUNCTION      0.00   307.52     0  07:21           0        4.29       0.142
  WS02006251           JUNCTION      0.08   400.00     0  07:20     0.00217        4.77       0.180
  WS02006252           JUNCTION      0.00   399.87     0  07:20           0        4.21       0.010
  WS02006253           JUNCTION      3.66   142.87     0  01:54      0.0117       0.558       0.632
  WS02006256           JUNCTION      0.00   605.91     0  02:00           0        8.15       0.024
  WS02004138           JUNCTION      0.00   285.00     0  01:40           0        5.84       0.075
  WS02004407           JUNCTION      0.00   812.29     0  01:57           0        9.14       0.062
  WS02006228           JUNCTION      0.00   786.93     0  01:57           0        9.24       0.144
  WS02006229           JUNCTION      0.00   786.91     0  01:56           0        9.25       0.126
  WS02006280           JUNCTION      0.00   656.04     0  01:55           0         2.7       0.002
  WS02006284           JUNCTION      0.10   655.96     0  01:55      0.0027         2.7       0.039
  WS02006287           JUNCTION      0.00   655.81     0  01:54           0         2.7       0.027
  WSF200               JUNCTION      0.00   811.75     0  01:59           0        9.04       0.037
  HS02004901           JUNCTION     32.57    32.57     0  01:50       0.114       0.115       1.560
  HS02004881           JUNCTION     13.82   139.59     0  01:54      0.0479       0.529       0.082
  HS02004876           JUNCTION     24.51   126.37     0  01:54      0.0923       0.482       0.114
  HS02004870           JUNCTION     25.44   102.13     0  01:54      0.0907        0.39       0.028
  HS02004862           JUNCTION     23.11    77.53     0  01:55       0.099       0.299       0.058
  HS02004856           JUNCTION     19.02    54.51     0  01:55      0.0682       0.202       0.720
  HS02004852           JUNCTION      0.00    36.10     0  01:55           0       0.134       0.042
  HS02004848           JUNCTION     50.49    50.49     0  01:57       0.223       0.223       0.021
  HS02004842           JUNCTION      0.00    15.55     0  02:06           0       0.102      14.561
  HS02004837           JUNCTION     49.08    62.50     0  01:55       0.337       0.426       0.191
  HS02004830           JUNCTION      0.15    62.61     0  01:55     0.00423       0.416       0.297
  HS02004824           JUNCTION     60.06   122.20     0  01:58       0.286       0.702       0.077
  HS02004817           JUNCTION      0.60   124.03     0  01:59      0.0169       0.718       2.378
  HS02004807           JUNCTION     47.25   168.28     0  01:57       0.166       0.868       0.499
  HS02004802           JUNCTION      0.00   169.25     0  01:58           0       0.865       0.461
  HS02004799           JUNCTION     37.43   414.53     0  01:52       0.135        1.57       0.166
  HS02004792           JUNCTION    160.44   377.30     0  01:52       0.598        1.44       0.028
  HS02004788           JUNCTION     53.14   218.54     0  01:52        0.24       0.839       0.046
  HS02004785           JUNCTION      0.15   165.59     0  01:52     0.00423       0.601       0.082
  HS02004777           JUNCTION      0.03   165.80     0  01:51    0.000846       0.601       0.872
  HS02004770           JUNCTION    134.74   166.64     0  01:51        0.49       0.602       0.516
  HS02004480           JUNCTION      0.00   492.23     0  01:53           0        1.85       0.064
  HS02004479           JUNCTION      0.00    78.01     0  01:53           0       0.292       0.252
  HS02004478           JUNCTION      0.00   655.76     0  01:54           0         2.7       0.013
  YS02001745           JUNCTION    386.89   386.89     0  02:16        3.55        3.55       0.323
  YS02001748           JUNCTION      0.04   397.39     0  02:16     0.00127        3.54       0.653
  YS02001751           JUNCTION      0.01   397.02     0  02:16     0.00031        3.52       0.678
  YS02001754           JUNCTION      0.26   397.09     0  02:16     0.00733         3.5       0.702
  YS02001762           JUNCTION      0.00   437.17     0  02:04           0        2.23       0.949
  YS02001765           JUNCTION      0.00   437.37     0  02:04           0        2.23       1.096
  YS02001767           JUNCTION      0.54   437.23     0  02:04      0.0151        2.25       1.604
  YS02001770           JUNCTION    491.42   619.87     0  03:00        3.94        4.54       0.692
  YS02001774           JUNCTION      0.00   619.88     0  03:00           0        2.88       0.868
  YS02001779           JUNCTION      0.01   619.89     0  03:00    0.000141        2.85       0.538
  YS02001882           JUNCTION      0.00    20.49     0  01:52           0      0.0278       9.611
  YS02001884           JUNCTION      0.00    46.98     0  01:52           0      0.0632      10.895
  YS02001759           JUNCTION    476.91   872.67     0  02:05        3.62        5.21       0.437
  YS02001887           JUNCTION    605.93   605.98     0  02:15        4.13        4.16       0.206
  YS02001890           JUNCTION      0.00   606.18     0  02:15           0        4.11       0.231
  YS02001898           JUNCTION      0.00   517.26     0  02:21           0           4       0.072
  YS02001901           JUNCTION      0.00   517.21     0  02:21           0           4       0.184
  YS02001904           JUNCTION      0.00   517.19     0  02:21           0        3.99       0.165
  YS02001907           JUNCTION      0.00  1162.47     0  01:59           0        9.13       0.266
  YS02001910           JUNCTION      0.00   649.08     0  01:59           0        5.15       0.224
  YS02001915           JUNCTION    345.21   648.92     0  01:59        2.96         5.2       0.124
  YS02001918           JUNCTION      0.00   375.60     0  01:59           0        2.28       0.081
  YS02001619           JUNCTION    336.52   336.52     0  02:16        2.95        2.95       0.414
  YS02001629           JUNCTION      0.00   233.07     0  01:47           0        1.44       2.015
  YS02001641           JUNCTION      0.00   418.04     0  01:51           0        4.86       0.431
  YS02001644           JUNCTION    367.62  1418.78     0  03:00        3.42        12.4       0.207
  YS02001652           JUNCTION      0.00   476.68     0  02:16           0        3.05       0.755
  YS02001655           JUNCTION      0.15   476.77     0  02:16     0.00434        3.07       0.827
  YS02001920           JUNCTION      2.87   375.44     0  01:59      0.0809        2.26       0.140
  YS02001923           JUNCTION      0.04   316.89     0  01:56     0.00106        2.16       0.041
  YS02001926           JUNCTION      0.05   252.56     0  01:56     0.00147        2.14       0.153
  YS02001929           JUNCTION    185.81   245.31     0  01:57        2.12        2.13       0.027
  YS02001658           JUNCTION      0.00   506.64     0  02:13           0        3.09       0.766
  YS02001661           JUNCTION      0.00   773.93     0  02:06           0        3.79      -0.084
  YS02001664           JUNCTION    437.54   437.54     0  02:16         3.1         3.8       0.178
  YS02001622           JUNCTION      0.00   336.68     0  02:15           0        2.94       1.093
  YS02001633           JUNCTION    373.18   418.19     0  01:51        3.53        4.92       0.651
  YS02001649           JUNCTION      0.00   978.43     0  02:00           0        6.38       0.577
  YS02001757           JUNCTION      0.00  2139.43     0  02:03           0        10.2       0.905
  YS02001895           JUNCTION      0.00   517.24     0  02:21           0           4       0.137
  YS02001625           JUNCTION      0.00   336.56     0  02:16           0        2.91       1.359
  YS02163301           JUNCTION      0.00   227.42     0  01:48           0        1.44       1.680
  YS02163601           JUNCTION      0.11   418.07     0  01:51      0.0031        4.87       0.615
  YS02164001           JUNCTION      0.00   418.12     0  01:51           0        4.85       0.409
  YS02001647           JUNCTION      0.00   691.74     0  02:57           0        5.42       0.521
  YSB1154              JUNCTION     43.61    43.61     0  01:53       0.163       0.164       0.888
  YSB6556              JUNCTION      0.00    43.64     0  01:53           0       0.165       0.765
  YSB1174              JUNCTION     35.87    35.87     0  01:50        0.12        0.12       1.078
  YSB1171              JUNCTION      0.00    78.04     0  01:52           0       0.291       2.227
  YS02006553           JUNCTION      0.00   682.65     0  03:22           0        7.13       0.219
  YS02006561           JUNCTION      0.00  1034.36     0  01:55           0        10.9       0.007
  YS02006556           JUNCTION      0.00   682.68     0  03:22           0        7.13       0.161
  YS02006558           JUNCTION    522.52  1034.74     0  01:55        3.81        10.9       0.050
  YS02001783           JUNCTION      0.00   999.75     0  01:55           0        10.9       0.022
  YS02001784           JUNCTION      1.06  1000.82     0  01:55      0.0299        10.9       0.037
  YS02001786           JUNCTION      0.06  1000.76     0  01:55     0.00159        10.9       0.033
  YS02001788           JUNCTION      0.07   987.44     0  01:55       0.002        10.9       0.019
  YS02001790           JUNCTION      0.15   975.38     0  01:55     0.00437        10.9       0.025
  YS02001791           JUNCTION      0.00   971.68     0  01:54           0        10.9       0.010
  YS02001793           JUNCTION      0.00   969.64     0  02:13           0        10.9       0.002
  WS02004139           JUNCTION      0.32   290.33     0  00:00     0.00905        5.85       0.560
  WSC                  OUTFALL       0.00  1119.99     0  02:05           0        15.4       0.000
  3                    OUTFALL       0.00   606.28     0  02:00           0        6.06       0.000
  4                    OUTFALL       0.00   188.92     0  02:00           0       0.426       0.000
  5                    OUTFALL       0.00     0.00     0  00:00           0           0       0.000 ltr
  JK-storage           STORAGE       0.00   969.80     0  02:14           0          11      -3.821
  CC-storage           STORAGE       0.00  2139.25     0  02:03           0        7.99       0.781
  XR-storage           STORAGE     844.69   844.69     0  03:01        12.1        12.7      -0.001
  
  
  **********************
  Node Surcharge Summary
  **********************
  
  Surcharging occurs when water rises above the top of the highest conduit.
  ---------------------------------------------------------------------
                                               Max. Height   Min. Depth
                                   Hours       Above Crown    Below Rim
  Node                 Type      Surcharged         Meters       Meters
  ---------------------------------------------------------------------
  WS02004401           JUNCTION        0.58          0.113        1.547
  WS02004402           JUNCTION        0.62          0.115        1.625
  WS02004403           JUNCTION        0.63          0.104        1.926
  WS02004404           JUNCTION        0.88          0.156        2.624
  WS02004406           JUNCTION        0.75          0.106        2.344
  WS02004405           JUNCTION        0.80          0.137        2.663
  WS02006109           JUNCTION        2.16          0.449        1.371
  WS02006110           JUNCTION        1.46          0.204        1.646
  WS02006112           JUNCTION        1.56          0.393        1.287
  WS02006115           JUNCTION        0.37          0.057        2.193
  WS02006116           JUNCTION        0.43          0.063        2.227
  WS02006230           JUNCTION        0.84          0.312        1.258
  WS02006231           JUNCTION        1.35          0.316        1.214
  WS02006232           JUNCTION        2.04          0.420        1.060
  WS02006234           JUNCTION        1.47          0.324        0.916
  WS02006235           JUNCTION        1.58          0.308        0.982
  WS02006238           JUNCTION        1.76          0.321        1.109
  WS02006240           JUNCTION        1.36          0.229        1.161
  WS02006242           JUNCTION        1.48          0.623        0.197
  WS02006243           JUNCTION        0.60          0.098        0.672
  WS02006245           JUNCTION        0.32          0.062        0.788
  WS02006247           JUNCTION        0.28          0.062        0.698
  WS02006239           JUNCTION        1.46          0.257        1.033
  WS02006252           JUNCTION        0.38          0.190        0.910
  WS02006256           JUNCTION        0.01          1.050        0.000
  WS02006228           JUNCTION        2.10          0.557        1.643
  YS02001748           JUNCTION        5.99          0.288        0.902
  YS02001751           JUNCTION        6.02          0.741        0.459
  YS02001754           JUNCTION        6.04          0.788        0.362
  YS02001762           JUNCTION        6.09          1.042        0.108
  YS02001765           JUNCTION        6.08          0.989        0.111
  YS02001767           JUNCTION        6.07          0.947        0.083
  YS02001770           JUNCTION        6.07          0.898        0.022
  YS02001774           JUNCTION        6.08          0.988        0.062
  YS02001779           JUNCTION        6.04          0.680        0.000
  YS02001882           JUNCTION        1.76          0.705        0.125
  YS02001884           JUNCTION        1.79          0.727        0.143
  YS02001759           JUNCTION        6.09          1.084        0.126
  YS02001887           JUNCTION        1.87          0.783        0.167
  YS02001890           JUNCTION        1.90          0.760        0.000
  YS02001898           JUNCTION        1.71          0.602        0.138
  YS02001901           JUNCTION        1.84          0.728        0.142
  YS02001904           JUNCTION        1.81          0.687        0.163
  YS02001907           JUNCTION        2.26          0.950        0.000
  YS02001910           JUNCTION        1.94          0.953        0.147
  YS02001915           JUNCTION        1.75          0.891        0.109
  YS02001918           JUNCTION        1.52          0.810        0.000
  YS02001619           JUNCTION        6.02          0.610        0.000
  YS02001629           JUNCTION        6.02          0.470        0.000
  YS02001641           JUNCTION        6.08          0.938        0.162
  YS02001644           JUNCTION        6.08          0.920        0.000
  YS02001652           JUNCTION        6.05          1.130        0.000
  YS02001655           JUNCTION        6.02          1.200        0.000
  YS02001920           JUNCTION        1.56          1.140        0.000
  YS02001923           JUNCTION        0.01          0.820        0.000
  YS02001926           JUNCTION        0.01          0.788        0.112
  YS02001658           JUNCTION        5.99          1.300        0.000
  YS02001661           JUNCTION        0.26          1.390        0.000
  YS02001622           JUNCTION        6.02          0.620        0.000
  YS02001633           JUNCTION        6.08          0.931        0.129
  YS02001649           JUNCTION        6.08          1.050        0.000
  YS02001757           JUNCTION        6.12          1.180        0.030
  YS02001895           JUNCTION        1.73          0.611        0.139
  YS02001625           JUNCTION        6.05          0.780        0.000
  YS02163301           JUNCTION        6.07          0.919        0.111
  YS02163601           JUNCTION        6.09          0.988        0.092
  YS02164001           JUNCTION        6.08          0.919        0.181
  YS02001647           JUNCTION        6.05          0.806        0.094
  YS02006553           JUNCTION        2.31          1.176        0.014
  YS02006561           JUNCTION        1.63          1.150        0.000
  YS02006556           JUNCTION        2.11          1.338        0.012
  YS02006558           JUNCTION        2.08          1.382        0.018
  YS02001783           JUNCTION        2.13          1.448        0.152
  YS02001784           JUNCTION        2.20          1.387        0.103
  YS02001786           JUNCTION        2.08          1.430        0.000
  YS02001788           JUNCTION        2.07          1.480        0.000
  YS02001790           JUNCTION        3.50          1.157        0.000
  YS02001791           JUNCTION        3.63          1.636        0.284
  YS02001793           JUNCTION        3.82          1.342        1.258
  
  
  *********************
  Node Flooding Summary
  *********************
  
  Flooding refers to all water that overflows a node, whether it ponds or not.
  --------------------------------------------------------------------------
                                                             Total   Maximum
                                 Maximum   Time of Max       Flood    Ponded
                        Hours       Rate    Occurrence      Volume     Depth
  Node                 Flooded       LPS   days hr:min    10^6 ltr    Meters
  --------------------------------------------------------------------------
  WS02006256              0.01    406.11      0  00:00       0.001     0.000
  YS02001779              3.52    619.89      0  03:00       2.833     0.000
  YS02001890              0.56     89.99      0  02:15       0.101     0.000
  YS02001907              1.39    638.02      0  01:59       1.993     0.000
  YS02001918              0.01     31.73      0  01:58       0.000     0.000
  YS02001619              0.01     50.84      0  01:48       0.000     0.000
  YS02001629              0.01    183.81      0  01:47       0.001     0.000
  YS02001644              5.48   1418.77      0  03:00      11.105     0.000
  YS02001652              0.01     17.07      0  02:13       0.000     0.000
  YS02001655              0.01     20.06      0  02:14       0.000     0.000
  YS02001920              0.01     23.15      0  01:58       0.000     0.000
  YS02001923              0.01    101.22      0  01:58       0.000     0.000
  YS02001658              0.01     11.95      0  02:13       0.000     0.000
  YS02001661              0.01    155.33      0  02:13       0.001     0.000
  YS02001622              0.01     40.96      0  01:48       0.000     0.000
  YS02001649              0.08     44.69      0  02:13       0.004     0.000
  YS02001625              2.02    326.11      0  02:16       1.447     0.000
  YS02006561              0.01     65.14      0  01:55       0.000     0.000
  YS02001786              0.01    100.15      0  01:55       0.000     0.000
  YS02001788              0.01    116.51      0  01:55       0.000     0.000
  YS02001790              0.01    153.03      0  01:55       0.000     0.000
  JK-storage              3.07    725.70      0  03:50       3.306     0.000
  XR-storage              5.53    559.68      0  03:01       5.939     0.000
  
  
  **********************
  Storage Volume Summary
  **********************
  
  --------------------------------------------------------------------------------------------------
                         Average     Avg  Evap Exfil       Maximum     Max    Time of Max    Maximum
                          Volume    Pcnt  Pcnt  Pcnt        Volume    Pcnt     Occurrence    Outflow
  Storage Unit           1000 m3    Full  Loss  Loss       1000 m3    Full    days hr:min        LPS
  --------------------------------------------------------------------------------------------------
  JK-storage               0.197      68     0     0         0.291     100       0  01:55     600.00
  CC-storage               3.282      21     0     0         3.932      25       0  02:55     399.87
  XR-storage               0.865      93     0     0         0.926     100       0  02:10     285.00
  
  
  ***********************
  Outfall Loading Summary
  ***********************
  
  -----------------------------------------------------------
                         Flow       Avg       Max       Total
                         Freq      Flow      Flow      Volume
  Outfall Node           Pcnt       LPS       LPS    10^6 ltr
  -----------------------------------------------------------
  WSC                   99.99    618.79   1119.99      15.373
  3                     90.34    308.67    606.28       6.060
  4                     31.19     66.15    188.92       0.426
  5                      0.00      0.00      0.00       0.000
  -----------------------------------------------------------
  System                55.38    993.61   1895.10      21.859
  
  
  ********************
  Link Flow Summary
  ********************
  
  -----------------------------------------------------------------------------
                                 Maximum  Time of Max   Maximum    Max/    Max/
                                  |Flow|   Occurrence   |Veloc|    Full    Full
  Link                 Type          LPS  days hr:min     m/sec    Flow   Depth
  -----------------------------------------------------------------------------
  WS02003066WSF200     CONDUIT    811.75     0  01:59      2.93    0.14    0.29
  WS02006287WS02006284 CONDUIT    655.86     0  01:55      2.36    0.30    0.38
  WS02006284WS02006280 CONDUIT    656.04     0  01:55      2.59    0.27    0.36
  WS02006280WS02006229 CONDUIT    656.05     0  01:55      4.21    0.14    0.25
  WS02006229WS02006228 CONDUIT    786.93     0  01:57      1.57    2.61    1.00
  WS02006256WS02006235 CONDUIT    177.52     0  00:01      2.73    1.88    1.00
  WS02006253WS02006251 CONDUIT    144.58     0  01:53      0.59    0.43    0.91
  WS02006252WS02006251 CONDUIT    399.93     0  07:20      3.18    1.47    1.00
  WS02006251WS02006249 CONDUIT    391.83     0  04:00      1.17    1.13    0.91
  WS02006249WS02006248 CONDUIT    356.66     0  04:00      1.17    1.95    0.91
  WS02006248WS02006247 CONDUIT    352.97     0  04:01      1.14    0.77    0.96
  WS02006247WS02006245 CONDUIT    348.99     0  04:01      1.12    2.77    1.00
  WS02006245WS02006243 CONDUIT    344.73     0  04:01      1.17    1.02    1.00
  WS02006243WS02006242 CONDUIT    336.60     0  04:01      1.05    0.72    1.00
  WS02006242WS02006240 CONDUIT    320.75     0  04:01      0.99    1.27    1.00
  WS02006240WS02006239 CONDUIT    307.52     0  07:21      1.03    0.97    1.00
  WS02006239WS02006238 CONDUIT    305.81     0  07:21      0.90    0.98    1.00
  WS02006238WS02006235 CONDUIT    306.55     0  07:22      1.32    0.68    1.00
  WS02006235WS02006234 CONDUIT    385.81     0  07:21      1.07    4.07    1.00
  WS02006234WS02006232 CONDUIT    385.78     0  07:22      1.17    0.78    1.00
  WS02006232WS02006231 CONDUIT    385.81     0  07:22      1.06    0.81    1.00
  WS02006231WS02006230 CONDUIT    383.08     0  07:22      1.36    5.81    1.00
  WS02006230WS02006229 CONDUIT    391.38     0  07:23      1.02    8.71    1.00
  WS02006228WS02006109 CONDUIT    786.82     0  01:57      1.57    3.44    1.00
  WS02006116WS02004401 CONDUIT    812.09     0  01:57      1.03    1.12    1.00
  WS02006115WS02006116 CONDUIT    812.08     0  01:57      1.03    1.04    1.00
  WS02006113WS02006111 CONDUIT    787.88     0  01:57      2.66    0.94    0.77
  WS02006112WS02006115 CONDUIT    812.16     0  01:57      1.03    0.48    1.00
  WS02006111WS02006112 CONDUIT    788.22     0  01:58      1.78    0.37    0.88
  WS02006110WS02006113 CONDUIT    788.02     0  01:57      1.68    0.72    0.89
  WS02006109WS02006110 CONDUIT    788.06     0  01:57      1.57    1.52    1.00
  WS02004411WS02004412 CONDUIT    811.73     0  01:59      1.15    1.15    0.84
  WS02004401WS02004402 CONDUIT    812.09     0  01:57      1.03    0.97    1.00
  WS02004413WS02003067 CONDUIT    811.74     0  01:59      1.40    0.35    0.69
  WS02004412WS02004413 CONDUIT    811.73     0  01:59      1.09    0.54    0.91
  WS02004410WS02004411 CONDUIT    811.78     0  01:58      1.14    1.11    0.85
  WS02004409WS02004410 CONDUIT    811.93     0  01:58      1.13    1.05    0.86
  WS02004407WS02004409 CONDUIT    812.27     0  01:57      1.66    0.29    0.61
  WS02004406WS02004407 CONDUIT    812.29     0  01:57      1.42    0.36    0.68
  WS02004405WS02004406 CONDUIT    812.28     0  01:57      1.03    1.60    1.00
  WS02004404WS02004405 CONDUIT    812.24     0  01:57      1.03    7.96    1.00
  WS02004403WS02004404 CONDUIT    812.08     0  01:57      1.03    0.59    1.00
  WS02004402WS02004403 CONDUIT    812.09     0  01:57      1.03    1.17    1.00
  WS02004139WS02001211 CONDUIT    287.07     0  02:27      0.80    0.36    0.57
  WS02004138WS02004139 CONDUIT    290.01     0  00:00      3.34    0.06    0.41
  WS02003067WS02003066 CONDUIT    811.77     0  01:59      1.52    0.26    0.48
  WS02001213WS02003059 CONDUIT    299.97     0  02:26      0.80    0.50    0.80
  WS02001212WS02001213 CONDUIT    297.77     0  02:26      1.19    0.46    0.48
  WS02001211WS02001212 CONDUIT    296.30     0  02:27      0.67    0.23    0.63
  WS02003072WS02003073 CONDUIT   1118.18     0  02:04      1.84    2.42    0.53
  WS02003069WS02003072 CONDUIT   1118.20     0  02:04      1.72    0.54    0.56
  WS02003060WS02003069 CONDUIT   1117.93     0  02:03      1.94    0.44    0.51
  WS02003059WS02003060 CONDUIT    302.55     0  02:25      0.82    0.20    0.70
  HS02004901HS02004770 CONDUIT     31.96     0  01:52      0.09    0.12    0.51
  HS02004876HS02004881 CONDUIT    126.38     0  01:55      1.20    1.34    0.15
  HS02004870HS02004876 CONDUIT    102.10     0  01:55      0.82    0.07    0.18
  HS02004842HS02004848 CONDUIT     15.55     0  02:06      0.07    0.01    0.33
  HS02004837HS02004842 CONDUIT     15.96     0  02:07      0.41    0.01    0.35
  HS02004830HS02004837 CONDUIT     62.46     0  01:55      0.66    0.06    0.14
  HS02004824HS02004830 CONDUIT     62.57     0  01:56      0.62    0.08    0.16
  HS02004817HS02004824 CONDUIT    123.43     0  01:59      0.31    0.06    0.58
  HS02004770HS02004777 CONDUIT    165.77     0  01:51      0.46    0.30    0.52
  HS02004799HS02004480 CONDUIT    414.30     0  01:53      1.02    0.52    0.58
  HS02004792HS02004799 CONDUIT    377.21     0  01:52      1.15    0.23    0.47
  HS02004788HS02004792 CONDUIT    218.44     0  01:53      1.24    0.14    0.25
  HS02004785HS02004788 CONDUIT    165.54     0  01:53      0.86    1.25    0.27
  HS02004777HS02004785 CONDUIT    165.44     0  01:52      0.54    0.20    0.44
  HS02004480HS02004478 CONDUIT    492.14     0  01:53      1.52    2.07    0.46
  HS02004479HS02004480 CONDUIT     78.31     0  01:54      0.27    0.08    0.55
  HS02004862HS02004870 CONDUIT     77.52     0  01:55      0.79    0.08    0.14
  HS02004848HS02004852 CONDUIT     36.10     0  01:55      0.52    0.04    0.10
  HS02004856HS02004862 CONDUIT     54.46     0  01:55      0.59    0.05    0.13
  HS02004852HS02004856 CONDUIT     36.15     0  01:56      0.33    0.04    0.16
  HS02004802HS02004478 CONDUIT    170.22     0  01:58      0.53    0.15    0.47
  HS02004478WS02006287 CONDUIT    655.81     0  01:54      2.08    0.18    0.35
  HS02004817HS02004807 CONDUIT    125.36     0  01:59      0.24    0.07    0.75
  HS02004807HS02004802 CONDUIT    169.25     0  01:58      0.47    0.32    0.53
  YS02001759YS02001757 CONDUIT    872.96     0  02:05      1.11    0.62    1.00
  YS02001762YS02001759 CONDUIT    437.44     0  02:04      0.56    0.50    1.00
  YS02001765YS02001762 CONDUIT    437.17     0  02:04      0.56    0.41    1.00
  YS02001770YS02001767 CONDUIT    436.69     0  02:04      0.56    1.73    1.00
  YS02001774YS02001770 CONDUIT    619.88     0  03:00      0.79    0.40    1.00
  YS02001779YS02001774 CONDUIT    619.89     0  03:00      0.79    0.31    1.00
  YS02001649YS02001757 CONDUIT    978.73     0  02:00      1.25    0.59    1.00
  YS02001767YS02001765 CONDUIT    437.37     0  02:04      0.56    0.55    1.00
  YS02006561YS02001783 CONDUIT    999.75     0  01:55      2.25    0.52    1.00
  YS02001783YS02001784 CONDUIT    999.76     0  01:55      1.99    1.38    1.00
  YS02001784YS02001785 CONDUIT   1000.71     0  01:55      2.04    2.33    1.00
  YS02001788YS02001790 CONDUIT    975.23     0  01:55      2.51    0.72    1.00
  YS02001790YS02001791 CONDUIT    971.68     0  01:54      3.05    1.06    1.00
  YS02001791YS02001793 CONDUIT    969.64     0  02:13      5.92    0.42    1.00
  YS02001910YS02001907 CONDUIT    649.13     0  01:59      0.83    0.37    1.00
  YS02001786YS02001788 CONDUIT    987.37     0  01:55      2.33    1.90    1.00
  YS02001915YS02001910 CONDUIT    649.08     0  01:59      0.83    0.32    1.00
  YS02001918YS02001915 CONDUIT    375.62     0  01:59      0.48    0.21    1.00
  YS02001923YS02001920 CONDUIT    372.57     0  01:59      0.78    0.17    1.00
  YS02001926YS02001923 CONDUIT    304.64     0  01:59      0.87    0.44    1.00
  YS02001929YS02001926 CONDUIT    244.39     0  01:58      0.93    0.12    0.99
  YS02001920YS02001918 CONDUIT    375.60     0  01:59      0.76    0.36    1.00
  YS02001629YS02163301 CONDUIT    227.42     0  01:48      0.29    0.28    1.00
  YS02001619YS02001622 CONDUIT    336.68     0  02:15      0.76    0.50    1.00
  YS02001622YS02001625 CONDUIT    336.56     0  02:16      0.43    0.18    1.00
  YS02001625YS02001629 CONDUIT    211.58     0  01:47      0.31    0.10    1.00
  YS02163301YS02001633 CONDUIT    227.19     0  01:48      0.29    0.21    1.00
  YS02163601YS02164001 CONDUIT    418.12     0  01:51      0.53    0.37    1.00
  YS02164001YS02001641 CONDUIT    418.04     0  01:51      0.53    0.57    1.00
  YS02001641YS02001644 CONDUIT    418.58     0  01:51      0.53    1.35    1.00
  YS02001647YS02001649 CONDUIT    691.74     0  02:57      0.88    0.37    1.00
  YS02006553YS02006556 CONDUIT    682.68     0  03:22      0.87    0.58    1.00
  YS02006556YS02006558 CONDUIT    682.74     0  03:22      0.87    0.54    1.00
  YSB6556YSB1171       CONDUIT     43.98     0  01:54      0.13    0.05    0.82
  YS02001907YS02006553 CONDUIT    682.65     0  03:22      0.76    0.80    1.00
  YS02006558YS02006561 CONDUIT   1034.36     0  01:55      3.72    2.29    1.00
  YS02001633YS02163601 CONDUIT    417.96     0  01:51      0.53    0.44    1.00
  YS02001644YS02001647 CONDUIT    691.79     0  02:57      0.88    0.41    1.00
  YS02001745YS02001748 CONDUIT    397.35     0  02:16      1.73    0.15    0.96
  YS02001748YS02001751 CONDUIT    397.01     0  02:16      1.26    0.20    1.00
  YS02001751YS02001754 CONDUIT    396.83     0  02:16      1.02    0.19    1.00
  YS02001754YS02001757 CONDUIT    396.89     0  02:16      0.51    0.16    1.00
  YS02001882YS02001884 CONDUIT     20.49     0  01:52      0.12    0.02    1.00
  YS02001884YS02001887 CONDUIT     46.98     0  01:52      0.09    0.06    1.00
  YS02001890YS02001895 CONDUIT    517.24     0  02:21      0.66    0.24    1.00
  YS02001895YS02001898 CONDUIT    517.26     0  02:21      0.66    0.90    1.00
  YS02001898YS02001901 CONDUIT    517.21     0  02:21      0.66    0.33    1.00
  YS02001901YS02001904 CONDUIT    517.19     0  02:21      0.66    0.80    1.00
  YS02001904YS02001907 CONDUIT    517.50     0  01:57      0.66    0.18    1.00
  YS02001887YS02001890 CONDUIT    606.18     0  02:15      0.77    1.04    1.00
  YS02001652YS02001649 CONDUIT    476.86     0  02:16      0.61    0.24    1.00
  YS02001655YS02001652 CONDUIT    476.68     0  02:16      1.09    0.23    1.00
  YS02001658YS02001655 CONDUIT    476.62     0  02:16      1.45    0.20    1.00
  YS02001661YS02001658 CONDUIT    506.64     0  02:13      1.85    0.20    1.00
  YS02001664YS02001661 CONDUIT    773.93     0  02:06      1.75    0.24    0.76
  YSB1154YSB6556       CONDUIT     43.64     0  01:53      0.17    0.08    0.72
  YSB1174YSB1171       CONDUIT     35.15     0  01:50      0.10    0.05    0.83
  YSB1171HS02004479    CONDUIT     78.01     0  01:53      0.54    0.05    0.67
  HS02004881HS02006253 CONDUIT    139.58     0  01:55      2.10    0.03    0.26
  YS02001793JiankangQianchi CONDUIT    969.80     0  02:14     14.02    0.08    1.00
  YS02001757CaochengTiaoxuchi CONDUIT   2139.25     0  02:03      3.75    0.94    1.00
  WSF200WS02003060     CONDUIT    811.56     0  02:00      1.92    0.18    0.40
  1                    CONDUIT   1119.99     0  02:05      3.43    0.39    0.43
  2                    CONDUIT    188.92     0  02:00      5.75    0.45    0.47
  3                    CONDUIT    606.28     0  02:00     10.05    0.97    0.86
  4                    CONDUIT      0.00     0  00:00      0.00    0.00    0.00
  CC-Pump-1            PUMP       200.00     0  02:00              1.00
  CC-Pump-2            PUMP       200.00     0  04:20              1.00
  JK-Pump-1            PUMP       300.00     0  00:00              1.00
  JK-Pump-2            PUMP       300.00     0  00:00              1.00
  XR-Pump-1            PUMP        95.00     0  04:00              1.00
  XR-Pump-2            PUMP        95.00     0  00:00              1.00
  XR-Pump-3            PUMP        95.00     0  00:00              1.00
  XR-Pump-4            PUMP        95.00     0  00:00              1.00
  
  
  ***************************
  Flow Classification Summary
  ***************************
  
  -------------------------------------------------------------------------------------
                      Adjusted    ---------- Fraction of Time in Flow Class ---------- 
                       /Actual         Up    Down  Sub   Sup   Up    Down  Norm  Inlet 
  Conduit               Length    Dry  Dry   Dry   Crit  Crit  Crit  Crit  Ltd   Ctrl  
  -------------------------------------------------------------------------------------
  WS02003066WSF200        1.00   0.07  0.00  0.00  0.00  0.93  0.00  0.00  0.57  0.00
  WS02006287WS02006284    1.00   0.03  0.01  0.00  0.55  0.41  0.00  0.00  0.65  0.00
  WS02006284WS02006280    1.00   0.03  0.00  0.00  0.00  0.00  0.00  0.97  0.00  0.00
  WS02006280WS02006229    1.00   0.03  0.00  0.00  0.00  0.00  0.00  0.97  0.00  0.00
  WS02006229WS02006228    1.00   0.00  0.00  0.00  0.99  0.00  0.00  0.01  0.00  0.00
  WS02006256WS02006235    1.00   0.00  0.00  0.00  1.00  0.00  0.00  0.00  0.00  0.00
  WS02006253WS02006251    1.00   0.02  0.01  0.00  0.97  0.00  0.00  0.00  0.00  0.00
  WS02006252WS02006251    1.00   0.05  0.00  0.00  0.00  0.00  0.95  0.00  0.00  0.00
  WS02006251WS02006249    1.00   0.00  0.00  0.00  1.00  0.00  0.00  0.00  0.18  0.00
  WS02006249WS02006248    1.00   0.00  0.01  0.00  0.94  0.00  0.05  0.00  0.00  0.00
  WS02006248WS02006247    1.00   0.02  0.00  0.00  0.98  0.00  0.00  0.01  0.07  0.00
  WS02006247WS02006245    1.00   0.02  0.00  0.00  0.97  0.00  0.00  0.01  0.00  0.00
  WS02006245WS02006243    1.00   0.01  0.00  0.00  0.96  0.00  0.00  0.03  0.01  0.00
  WS02006243WS02006242    1.00   0.01  0.00  0.00  0.99  0.00  0.00  0.00  0.17  0.00
  WS02006242WS02006240    1.00   0.00  0.00  0.00  0.99  0.00  0.00  0.00  0.00  0.00
  WS02006240WS02006239    1.00   0.00  0.00  0.00  0.97  0.00  0.00  0.03  0.02  0.00
  WS02006239WS02006238    1.00   0.00  0.00  0.00  1.00  0.00  0.00  0.00  0.00  0.00
  WS02006238WS02006235    1.00   0.00  0.00  0.00  1.00  0.00  0.00  0.00  0.00  0.00
  WS02006235WS02006234    1.00   0.00  0.00  0.00  0.97  0.00  0.03  0.00  0.00  0.00
  WS02006234WS02006232    1.00   0.00  0.00  0.00  1.00  0.00  0.00  0.00  0.00  0.00
  WS02006232WS02006231    1.00   0.00  0.00  0.00  0.99  0.00  0.01  0.00  0.00  0.00
  WS02006231WS02006230    1.00   0.00  0.00  0.00  0.54  0.00  0.45  0.00  0.00  0.00
  WS02006230WS02006229    1.00   0.00  0.00  0.00  0.99  0.00  0.00  0.01  0.01  0.00
  WS02006228WS02006109    1.00   0.00  0.00  0.00  1.00  0.00  0.00  0.00  0.00  0.00
  WS02006116WS02004401    1.00   0.02  0.00  0.00  0.98  0.00  0.00  0.00  0.00  0.00
  WS02006115WS02006116    1.00   0.02  0.00  0.00  0.97  0.00  0.00  0.01  0.01  0.00
  WS02006113WS02006111    1.00   0.02  0.00  0.00  0.08  0.91  0.00  0.00  0.10  0.00
  WS02006112WS02006115    1.00   0.02  0.00  0.00  0.98  0.00  0.00  0.00  0.00  0.00
  WS02006111WS02006112    1.00   0.02  0.00  0.00  0.98  0.00  0.00  0.00  0.88  0.00
  WS02006110WS02006113    1.00   0.01  0.00  0.00  0.98  0.00  0.00  0.00  0.00  0.00
  WS02006109WS02006110    1.00   0.00  0.01  0.00  0.98  0.00  0.00  0.00  0.00  0.00
  WS02004411WS02004412    1.00   0.04  0.00  0.00  0.96  0.00  0.00  0.00  0.00  0.00
  WS02004401WS02004402    1.00   0.02  0.00  0.00  0.98  0.00  0.00  0.00  0.00  0.00
  WS02004413WS02003067    1.00   0.04  0.01  0.00  0.00  0.00  0.94  0.00  0.00  0.00
  WS02004412WS02004413    1.00   0.04  0.00  0.00  0.95  0.00  0.00  0.00  0.00  0.00
  WS02004410WS02004411    1.00   0.04  0.00  0.00  0.96  0.00  0.00  0.00  0.00  0.00
  WS02004409WS02004410    1.00   0.04  0.00  0.00  0.96  0.00  0.00  0.00  0.00  0.00
  WS02004407WS02004409    1.00   0.04  0.00  0.00  0.95  0.01  0.00  0.00  0.80  0.00
  WS02004406WS02004407    1.00   0.00  0.04  0.00  0.96  0.00  0.00  0.00  0.00  0.00
  WS02004405WS02004406    1.00   0.00  0.00  0.00  1.00  0.00  0.00  0.00  0.02  0.00
  WS02004404WS02004405    1.00   0.00  0.00  0.00  1.00  0.00  0.00  0.00  0.00  0.00
  WS02004403WS02004404    1.00   0.00  0.02  0.00  0.98  0.00  0.00  0.00  0.02  0.00
  WS02004402WS02004403    1.00   0.02  0.00  0.00  0.98  0.00  0.00  0.00  0.00  0.00
  WS02004139WS02001211    1.00   0.00  0.00  0.00  0.99  0.00  0.00  0.00  0.00  0.00
  WS02004138WS02004139    1.00   0.00  0.00  0.00  0.99  0.01  0.00  0.00  1.00  0.00
  WS02003067WS02003066    1.00   0.06  0.01  0.00  0.94  0.00  0.00  0.00  0.00  0.00
  WS02001213WS02003059    1.00   0.00  0.00  0.00  0.99  0.00  0.00  0.00  0.00  0.00
  WS02001212WS02001213    1.00   0.00  0.00  0.00  0.88  0.00  0.12  0.00  0.00  0.00
  WS02001211WS02001212    1.00   0.00  0.00  0.00  1.00  0.00  0.00  0.00  0.00  0.00
  WS02003072WS02003073    1.00   0.00  0.00  0.00  0.00  0.00  0.00  1.00  0.00  0.00
  WS02003069WS02003072    1.00   0.00  0.00  0.00  0.99  0.01  0.00  0.00  0.23  0.00
  WS02003060WS02003069    1.00   0.00  0.00  0.00  0.99  0.01  0.00  0.00  0.06  0.00
  WS02003059WS02003060    1.00   0.00  0.00  0.00  0.99  0.01  0.00  0.00  0.01  0.00
  HS02004901HS02004770    1.00   0.03  0.00  0.00  0.97  0.00  0.00  0.00  0.00  0.00
  HS02004876HS02004881    1.00   0.02  0.00  0.00  0.83  0.15  0.00  0.00  0.00  0.00
  HS02004870HS02004876    1.00   0.01  0.00  0.00  0.99  0.00  0.00  0.00  0.95  0.00
  HS02004842HS02004848    1.00   0.00  0.03  0.00  0.97  0.00  0.00  0.00  0.57  0.00
  HS02004837HS02004842    1.00   0.00  0.00  0.00  0.99  0.01  0.00  0.00  0.11  0.00
  HS02004830HS02004837    1.00   0.00  0.00  0.00  1.00  0.00  0.00  0.00  0.99  0.00
  HS02004824HS02004830    1.00   0.00  0.00  0.00  1.00  0.00  0.00  0.00  0.03  0.00
  HS02004817HS02004824    1.00   0.00  0.00  0.00  1.00  0.00  0.00  0.00  0.94  0.00
  HS02004770HS02004777    1.00   0.00  0.03  0.00  0.97  0.00  0.00  0.00  0.03  0.00
  HS02004799HS02004480    1.00   0.00  0.01  0.00  0.96  0.00  0.02  0.00  0.00  0.00
  HS02004792HS02004799    1.00   0.00  0.00  0.00  0.99  0.01  0.00  0.00  0.98  0.00
  HS02004788HS02004792    1.00   0.00  0.00  0.00  0.99  0.01  0.00  0.00  0.98  0.00
  HS02004785HS02004788    1.00   0.00  0.00  0.00  1.00  0.00  0.00  0.00  0.00  0.00
  HS02004777HS02004785    1.00   0.00  0.00  0.00  1.00  0.00  0.00  0.00  0.13  0.00
  HS02004480HS02004478    1.00   0.03  0.00  0.00  0.61  0.00  0.00  0.36  0.00  0.00
  HS02004479HS02004480    1.00   0.02  0.00  0.00  0.98  0.00  0.00  0.00  0.12  0.00
  HS02004862HS02004870    1.00   0.00  0.00  0.00  1.00  0.00  0.00  0.00  0.04  0.00
  HS02004848HS02004852    1.00   0.03  0.00  0.00  0.97  0.00  0.00  0.00  0.78  0.00
  HS02004856HS02004862    1.00   0.00  0.04  0.00  0.96  0.00  0.00  0.00  0.82  0.00
  HS02004852HS02004856    1.00   0.03  0.00  0.00  0.97  0.00  0.00  0.00  0.77  0.00
  HS02004802HS02004478    1.00   0.03  0.00  0.00  0.97  0.00  0.00  0.00  0.03  0.00
  HS02004478WS02006287    1.00   0.04  0.00  0.00  0.67  0.29  0.00  0.00  0.62  0.00
  HS02004817HS02004807    1.00   0.00  0.03  0.00  0.97  0.00  0.00  0.00  0.01  0.00
  HS02004807HS02004802    1.00   0.03  0.00  0.00  0.96  0.00  0.00  0.00  0.00  0.00
  YS02001759YS02001757    1.00   0.00  0.00  0.00  1.00  0.00  0.00  0.00  0.16  0.00
  YS02001762YS02001759    1.00   0.00  0.00  0.00  1.00  0.00  0.00  0.00  0.03  0.00
  YS02001765YS02001762    1.00   0.00  0.00  0.00  1.00  0.00  0.00  0.00  0.14  0.00
  YS02001770YS02001767    1.00   0.00  0.00  0.00  1.00  0.00  0.00  0.00  0.00  0.00
  YS02001774YS02001770    1.00   0.00  0.03  0.00  0.97  0.00  0.00  0.00  0.03  0.00
  YS02001779YS02001774    1.00   0.00  0.00  0.00  1.00  0.00  0.00  0.00  0.18  0.00
  YS02001649YS02001757    1.00   0.00  0.00  0.00  1.00  0.00  0.00  0.00  0.16  0.00
  YS02001767YS02001765    1.00   0.00  0.00  0.00  1.00  0.00  0.00  0.00  0.00  0.00
  YS02006561YS02001783    1.00   0.04  0.00  0.00  0.58  0.38  0.00  0.00  0.51  0.00
  YS02001783YS02001784    1.00   0.00  0.04  0.00  0.96  0.00  0.00  0.00  0.00  0.00
  YS02001784YS02001785    1.00   0.00  0.00  0.00  1.00  0.00  0.00  0.00  0.17  0.00
  YS02001788YS02001790    1.00   0.00  0.00  0.00  0.65  0.35  0.00  0.00  0.45  0.00
  YS02001790YS02001791    1.00   0.00  0.00  0.00  0.63  0.37  0.00  0.00  0.29  0.00
  YS02001791YS02001793    1.00   0.00  0.00  0.00  0.64  0.36  0.00  0.00  0.02  0.00
  YS02001910YS02001907    1.00   0.00  0.00  0.00  0.98  0.00  0.00  0.02  0.12  0.00
  YS02001786YS02001788    1.00   0.00  0.00  0.00  0.63  0.37  0.00  0.00  0.00  0.00
  YS02001915YS02001910    1.00   0.00  0.00  0.00  0.99  0.01  0.00  0.00  0.16  0.00
  YS02001918YS02001915    1.00   0.00  0.01  0.00  0.99  0.00  0.00  0.00  0.52  0.00
  YS02001923YS02001920    1.00   0.00  0.00  0.00  1.00  0.00  0.00  0.00  0.74  0.00
  YS02001926YS02001923    1.00   0.00  0.02  0.00  0.32  0.00  0.65  0.00  0.00  0.00
  YS02001929YS02001926    1.00   0.00  0.03  0.00  0.97  0.00  0.00  0.00  0.66  0.00
  YS02001920YS02001918    1.00   0.00  0.01  0.00  0.99  0.00  0.00  0.00  0.00  0.00
  YS02001629YS02163301    1.00   0.04  0.00  0.00  0.96  0.00  0.00  0.00  0.00  0.00
  YS02001619YS02001622    1.00   0.03  0.00  0.00  0.97  0.00  0.00  0.00  0.00  0.00
  YS02001622YS02001625    1.00   0.03  0.00  0.00  0.97  0.00  0.00  0.00  0.05  0.00
  YS02001625YS02001629    1.00   0.03  0.01  0.00  0.95  0.00  0.01  0.00  0.00  0.00
  YS02163301YS02001633    1.00   0.00  0.04  0.00  0.96  0.00  0.00  0.00  0.00  0.00
  YS02163601YS02164001    1.00   0.00  0.03  0.00  0.97  0.00  0.00  0.00  0.00  0.00
  YS02164001YS02001641    1.00   0.01  0.01  0.00  0.97  0.00  0.00  0.00  0.06  0.00
  YS02001641YS02001644    1.00   0.00  0.01  0.00  0.99  0.00  0.00  0.00  0.00  0.00
  YS02001647YS02001649    1.00   0.00  0.04  0.00  0.96  0.00  0.00  0.00  0.01  0.00
  YS02006553YS02006556    1.00   0.01  0.00  0.00  0.99  0.00  0.00  0.00  0.03  0.00
  YS02006556YS02006558    1.00   0.00  0.00  0.00  1.00  0.00  0.00  0.00  0.00  0.00
  YSB6556YSB1171          1.00   0.02  0.01  0.00  0.97  0.00  0.00  0.00  0.00  0.00
  YS02001907YS02006553    1.00   0.00  0.01  0.00  0.98  0.00  0.00  0.00  0.00  0.00
  YS02006558YS02006561    1.00   0.04  0.00  0.00  0.34  0.62  0.00  0.00  0.42  0.00
  YS02001633YS02163601    1.00   0.00  0.01  0.00  0.99  0.00  0.00  0.00  0.15  0.00
  YS02001644YS02001647    1.00   0.00  0.04  0.00  0.96  0.00  0.00  0.00  0.00  0.00
  YS02001745YS02001748    1.00   0.00  0.00  0.00  0.93  0.00  0.00  0.07  0.01  0.00
  YS02001748YS02001751    1.00   0.00  0.00  0.00  0.98  0.02  0.00  0.00  0.14  0.00
  YS02001751YS02001754    1.00   0.00  0.00  0.00  0.95  0.00  0.00  0.04  0.01  0.00
  YS02001754YS02001757    1.00   0.00  0.00  0.00  0.99  0.01  0.00  0.00  0.18  0.00
  YS02001882YS02001884    1.00   0.04  0.00  0.00  0.96  0.00  0.00  0.00  0.00  0.00
  YS02001884YS02001887    1.00   0.02  0.01  0.00  0.97  0.00  0.00  0.00  0.00  0.00
  YS02001890YS02001895    1.00   0.00  0.03  0.00  0.96  0.00  0.00  0.00  0.00  0.00
  YS02001895YS02001898    1.00   0.04  0.00  0.00  0.96  0.00  0.00  0.00  0.00  0.00
  YS02001898YS02001901    1.00   0.04  0.00  0.00  0.96  0.00  0.00  0.00  0.01  0.00
  YS02001901YS02001904    1.00   0.04  0.00  0.00  0.96  0.00  0.00  0.00  0.00  0.00
  YS02001904YS02001907    1.00   0.00  0.04  0.00  0.96  0.00  0.00  0.00  0.00  0.00
  YS02001887YS02001890    1.00   0.00  0.00  0.00  0.98  0.00  0.01  0.00  0.00  0.00
  YS02001652YS02001649    1.00   0.00  0.00  0.00  1.00  0.00  0.00  0.00  0.16  0.00
  YS02001655YS02001652    1.00   0.00  0.00  0.00  0.95  0.00  0.00  0.04  0.01  0.00
  YS02001658YS02001655    1.00   0.00  0.04  0.00  0.94  0.02  0.00  0.00  0.02  0.00
  YS02001661YS02001658    1.00   0.04  0.00  0.00  0.93  0.04  0.00  0.00  0.00  0.00
  YS02001664YS02001661    1.00   0.03  0.00  0.00  0.93  0.04  0.00  0.00  0.10  0.00
  YSB1154YSB6556          1.00   0.03  0.00  0.00  0.97  0.00  0.00  0.00  0.02  0.00
  YSB1174YSB1171          1.00   0.02  0.01  0.00  0.97  0.00  0.00  0.00  0.00  0.00
  YSB1171HS02004479       1.00   0.02  0.00  0.00  0.98  0.00  0.00  0.00  0.11  0.00
  HS02004881HS02006253    1.00   0.02  0.00  0.00  0.84  0.01  0.00  0.13  0.69  0.00
  YS02001793JiankangQianchi    1.00   0.00  0.00  0.00  0.77  0.22  0.00  0.00  0.14  0.00
  YS02001757CaochengTiaoxuchi    1.00   0.00  0.05  0.00  0.90  0.05  0.00  0.00  0.00  0.00
  WSF200WS02003060        1.00   0.00  0.07  0.00  0.51  0.43  0.00  0.00  0.04  0.00
  1                       1.00   0.00  0.00  0.00  0.00  1.00  0.00  0.00  0.53  0.00
  2                       1.00   0.69  0.00  0.00  0.00  0.31  0.00  0.00  0.03  0.00
  3                       1.00   0.10  0.00  0.00  0.00  0.90  0.00  0.00  0.03  0.00
  4                       1.00   1.00  0.00  0.00  0.00  0.00  0.00  0.00  0.00  0.00
  
  
  *************************
  Conduit Surcharge Summary
  *************************
  
  ----------------------------------------------------------------------------
                                                           Hours        Hours 
                         --------- Hours Full --------   Above Full   Capacity
  Conduit                Both Ends  Upstream  Dnstream   Normal Flow   Limited
  ----------------------------------------------------------------------------
  WS02006229WS02006228        2.09      2.23      2.09      5.01         2.09
  WS02006256WS02006235        6.25      6.25      7.83      4.11         0.01
  WS02006252WS02006251        0.14      0.14      0.38      0.32         0.01
  WS02006251WS02006249        0.01      0.01      0.01      0.13         0.01
  WS02006249WS02006248        0.01      0.01      0.01      4.65         0.01
  WS02006248WS02006247        0.01      0.01      0.28      0.01         0.01
  WS02006247WS02006245        0.32      0.38      0.32      5.45         0.31
  WS02006245WS02006243        0.39      0.39      0.60      0.03         0.01
  WS02006243WS02006242        0.66      0.66      1.48      0.01         0.01
  WS02006242WS02006240        1.36      1.36      1.64      0.36         0.01
  WS02006240WS02006239        1.40      1.40      1.46      0.01         0.01
  WS02006239WS02006238        1.62      1.62      1.76      0.01         0.01
  WS02006238WS02006235        1.65      1.65      1.93      0.01         0.01
  WS02006235WS02006234        1.47      1.47      1.58      6.24         0.04
  WS02006234WS02006232        1.52      1.52      2.04      0.01         0.01
  WS02006232WS02006231        1.35      1.35      2.04      0.01         0.01
  WS02006231WS02006230        0.84      0.84      1.37      6.26         0.02
  WS02006230WS02006229        2.65      4.81      2.65      6.32         2.64
  WS02006228WS02006109        2.16      2.46      2.16      5.63         2.16
  WS02006116WS02004401        0.57      0.57      0.58      0.51         0.51
  WS02006115WS02006116        0.41      0.41      0.43      0.29         0.28
  WS02006112WS02006115        0.37      0.37      1.56      0.01         0.01
  WS02006111WS02006112        0.01      0.01      5.10      0.01         0.01
  WS02006110WS02006113        0.01      0.01      2.35      0.01         0.01
  WS02006109WS02006110        1.46      1.46      2.46      1.46         0.01
  WS02004411WS02004412        0.01      0.01      0.01      0.55         0.01
  WS02004401WS02004402        0.58      0.58      0.62      0.01         0.01
  WS02004410WS02004411        0.01      0.01      0.01      0.49         0.01
  WS02004409WS02004410        0.01      0.01      0.01      0.31         0.01
  WS02004406WS02004407        0.01      0.01      0.75      0.01         0.01
  WS02004405WS02004406        0.75      0.80      0.75      1.51         0.75
  WS02004404WS02004405        0.80      0.88      0.80      6.24         0.80
  WS02004403WS02004404        0.63      0.63      0.88      0.01         0.01
  WS02004402WS02004403        0.62      0.62      0.63      0.57         0.56
  WS02003072WS02003073        0.01      0.01      0.01      4.35         0.01
  HS02004876HS02004881        0.01      0.01      0.01      0.49         0.01
  HS02004785HS02004788        0.01      0.01      0.01      0.35         0.01
  HS02004480HS02004478        0.01      0.01      0.01      0.79         0.01
  YS02001759YS02001757        6.09      6.09      6.12      0.01         0.01
  YS02001762YS02001759        6.09      6.09      6.09      0.01         0.01
  YS02001765YS02001762        6.08      6.08      6.09      0.01         0.01
  YS02001770YS02001767        6.07      6.07      6.07      0.44         0.78
  YS02001774YS02001770        6.07      6.07      6.08      0.01         0.01
  YS02001779YS02001774        6.04      6.04      6.08      0.01         0.01
  YS02001649YS02001757        6.08      6.08      6.12      0.01         0.01
  YS02001767YS02001765        6.07      6.07      6.08      0.01         0.01
  YS02006561YS02001783        1.63      1.63      2.13      0.01         0.01
  YS02001783YS02001784        2.12      2.13      2.20      2.02         1.92
  YS02001784YS02001785        2.08      2.20      2.08      2.74         2.08
  YS02001788YS02001790        2.07      2.07      3.50      0.01         0.01
  YS02001790YS02001791        3.50      3.50      3.63      1.50         1.49
  YS02001791YS02001793        3.63      3.63      3.89      0.01         0.01
  YS02001910YS02001907        1.94      1.94      2.26      0.01         0.01
  YS02001786YS02001788        2.07      2.08      2.07      2.44         2.06
  YS02001915YS02001910        1.75      1.75      1.94      0.01         0.01
  YS02001918YS02001915        1.52      1.52      1.75      0.01         0.01
  YS02001923YS02001920        1.34      1.34      1.56      0.01         0.01
  YS02001926YS02001923        0.01      0.01      0.01      0.01         0.01
  YS02001929YS02001926        0.01      0.01      0.01      0.01         0.01
  YS02001920YS02001918        1.52      1.52      1.56      0.01         0.01
  YS02001629YS02163301        6.06      6.06      6.07      0.01         0.01
  YS02001619YS02001622        6.02      6.02      6.02      0.01         0.01
  YS02001622YS02001625        6.02      6.02      6.05      0.01         0.01
  YS02001625YS02001629        6.02      6.02      6.05      0.01         0.01
  YS02163301YS02001633        6.07      6.07      6.08      0.01         0.01
  YS02163601YS02164001        6.08      6.08      6.09      0.01         0.01
  YS02164001YS02001641        6.08      6.08      6.08      0.01         0.02
  YS02001641YS02001644        6.08      6.08      6.08      2.21         2.14
  YS02001647YS02001649        6.05      6.05      6.08      0.01         0.01
  YS02006553YS02006556        2.11      2.11      2.31      0.01         0.01
  YS02006556YS02006558        2.18      2.18      2.37      0.01         0.01
  YSB6556YSB1171              0.01      0.01      0.14      0.01         0.01
  YS02001907YS02006553        2.75      2.75      2.95      0.01         0.01
  YS02006558YS02006561        1.80      2.08      1.80      2.63         1.80
  YS02001633YS02163601        6.08      6.08      6.09      0.01         0.01
  YS02001644YS02001647        6.05      6.05      6.08      0.01         0.01
  YS02001745YS02001748        0.01      0.01      5.99      0.01         0.01
  YS02001748YS02001751        6.00      6.00      6.02      0.01         0.01
  YS02001751YS02001754        6.02      6.02      6.04      0.01         0.01
  YS02001754YS02001757        6.05      6.05      6.12      0.01         0.01
  YS02001882YS02001884        1.76      1.76      1.79      0.01         0.01
  YS02001884YS02001887        1.84      1.84      1.87      0.01         0.01
  YS02001890YS02001895        1.73      1.73      1.96      0.01         0.01
  YS02001895YS02001898        1.71      1.71      1.73      0.01         0.01
  YS02001898YS02001901        1.74      1.74      1.84      0.01         0.01
  YS02001901YS02001904        1.81      1.81      1.84      0.01         0.01
  YS02001904YS02001907        1.81      1.81      2.33      0.01         0.01
  YS02001887YS02001890        1.90      1.90      1.92      0.20         0.01
  YS02001652YS02001649        6.06      6.06      6.08      0.01         0.01
  YS02001655YS02001652        6.02      6.02      6.05      0.01         0.01
  YS02001658YS02001655        5.99      5.99      6.02      0.01         0.01
  YS02001661YS02001658        0.25      0.25      5.99      0.01         0.01
  YS02001664YS02001661        0.01      0.01      1.87      0.01         0.01
  YS02001793JiankangQianchi        3.82      3.82      4.67      0.01         0.01
  YS02001757CaochengTiaoxuchi        5.59      5.59      6.12      0.01         0.01
  3                           0.01      0.01      0.01      0.01         0.01
  
  
  ***************
  Pumping Summary
  ***************
  
  ---------------------------------------------------------------------------------------------------------
                                                  Min       Avg       Max     Total     Power    % Time Off
                        Percent   Number of      Flow      Flow      Flow    Volume     Usage    Pump Curve
  Pump                 Utilized   Start-Ups       LPS       LPS       LPS  10^6 ltr     Kw-hr    Low   High
  ---------------------------------------------------------------------------------------------------------
  CC-Pump-1               55.87           4      0.00    159.34    200.00     2.409      2.41    0.0    7.2
  CC-Pump-2               47.36           4      0.00    133.46    200.00     1.802      1.67    0.0    8.5
  JK-Pump-1               95.75           2      0.00    231.43    300.00     5.051     36.96    0.0    0.0
  JK-Pump-2               72.34           5      0.00    205.69    300.00     3.070     23.96    0.0    0.0
  XR-Pump-1               27.65           5      0.00     51.72     95.00     0.399      3.33    0.0    0.0
  XR-Pump-2               95.74           4      0.00     80.48     95.00     2.223     18.06    0.0    0.0
  XR-Pump-3               70.21           5      0.00     75.87     95.00     1.511     14.68    0.0    0.0
  XR-Pump-4               78.72           6      0.00     79.55     95.00     1.710     14.74    0.0    0.0
  

  Analysis begun on:  Thu Dec 23 16:45:30 2021
  Analysis ended on:  Thu Dec 23 16:45:35 2021
  Total elapsed time: 00:00:05