
  EPA STORM WATER MANAGEMENT MODEL - VERSION 5.1 (Build 5.3.0.dev0)
  --------------------------------------------------------------

  WARNING 04: minimum elevation drop used for Conduit WS02004404WS02004405
  WARNING 03: negative offset ignored for Link YS02001904YS02001907
  
  *********************************************************
  NOTE: The summary statistics displayed in this report are
  based on results found at every computational time step,  
  not just on results from each reporting time step.
  *********************************************************
  
  ****************
  Analysis Options
  ****************
  Flow Units ............... LPS
  Process Models:
    Rainfall/Runoff ........ YES
    RDII ................... NO
    Snowmelt ............... NO
    Groundwater ............ NO
    Flow Routing ........... YES
    Ponding Allowed ........ NO
    Water Quality .......... NO
  Infiltration Method ...... HORTON
  Flow Routing Method ...... DYNWAVE
  Surcharge Method ......... EXTRAN
  Starting Date ............ 08/28/2015 08:00:00
  Ending Date .............. 08/28/2015 15:50:00
  Antecedent Dry Days ...... 8.0
  Report Time Step ......... 00:01:00
  Wet Time Step ............ 00:01:00
  Dry Time Step ............ 00:01:00
  Routing Time Step ........ 5.00 sec
  Variable Time Step ....... YES
  Maximum Trials ........... 8
  Number of Threads ........ 4
  Head Tolerance ........... 0.001500 m
  
  
  **************************        Volume         Depth
  Runoff Quantity Continuity     hectare-m            mm
  **************************     ---------       -------
  Total Precipitation ......         7.641        16.729
  Evaporation Loss .........         0.000         0.000
  Infiltration Loss ........         1.880         4.117
  Surface Runoff ...........         4.668        10.221
  Final Storage ............         1.093         2.393
  Continuity Error (%) .....        -0.013
  
  
  **************************        Volume        Volume
  Flow Routing Continuity        hectare-m      10^6 ltr
  **************************     ---------     ---------
  Dry Weather Inflow .......         0.616         6.165
  Wet Weather Inflow .......         4.667        46.670
  Groundwater Inflow .......         0.000         0.000
  RDII Inflow ..............         0.000         0.000
  External Inflow ..........         0.102         1.024
  External Outflow .........         2.125        21.245
  Flooding Loss ............         2.719        27.187
  Evaporation Loss .........         0.000         0.000
  Exfiltration Loss ........         0.000         0.000
  Initial Stored Volume ....         0.076         0.761
  Final Stored Volume ......         0.647         6.475
  Continuity Error (%) .....        -0.528
  
  
  *************************
  Highest Continuity Errors
  *************************
  Node HS02004842 (12.71%)
  Node YS02001884 (10.86%)
  Node JK-storage (-2.36%)
  Node HS02004817 (2.32%)
  Node YSB1171 (2.18%)
  
  
  ***************************
  Time-Step Critical Elements
  ***************************
  Link WS02006252WS02006251 (53.39%)
  Link 3 (41.16%)
  Link WS02006280WS02006229 (1.04%)
  
  
  ********************************
  Highest Flow Instability Indexes
  ********************************
  Link YS02163601YS02164001 (44)
  Link YS02163301YS02001633 (44)
  Link YS02001629YS02163301 (42)
  Link YS02001619YS02001622 (40)
  Link YS02164001YS02001641 (39)
  
  
  *************************
  Routing Time Step Summary
  *************************
  Minimum Time Step           :     0.34 sec
  Average Time Step           :     0.77 sec
  Maximum Time Step           :     5.00 sec
  Percent in Steady State     :    -0.00
  Average Iterations per Step :     4.44
  Percent Not Converging      :    17.22
  
  
  ***************************
  Subcatchment Runoff Summary
  ***************************
  
  ------------------------------------------------------------------------------------------------------------------------------
                            Total      Total      Total      Total     Imperv       Perv      Total       Total     Peak  Runoff
                           Precip      Runon       Evap      Infil     Runoff     Runoff     Runoff      Runoff   Runoff   Coeff
  Subcatchment                 mm         mm         mm         mm         mm         mm         mm    10^6 ltr      LPS
  ------------------------------------------------------------------------------------------------------------------------------
  sub0                      16.73       0.00       0.00       0.97      14.29       0.20      14.50        0.01     3.66   0.867
  sub1                      16.73       0.00       0.00       1.58      13.63       0.26      13.89        0.09    24.51   0.830
  sub2                      16.73       0.00       0.00       5.80       9.63       0.39      10.02        0.09    22.91   0.599
  sub3                      16.73       0.00       0.00       5.88       9.59       0.31       9.90        0.22    50.49   0.592
  sub4                      16.73       0.00       0.00       1.65      13.47       0.19      13.66        0.28    60.01   0.817
  sub5                      16.73       0.00       0.00       0.99      14.24       0.18      14.42        0.16    43.61   0.862
  sub7                      16.73       0.00       0.00       1.26      13.97       0.24      14.21        0.05    13.82   0.849
  sub8                      16.73       0.00       0.00       1.27      13.96       0.23      14.19        0.09    25.44   0.848
  sub9                      16.73       0.00       0.00       1.27      13.96       0.23      14.19        0.07    19.02   0.848
  sub10                     16.73       0.00       0.00       1.13      14.10       0.21      14.30        0.16    42.73   0.855
  sub11                     16.73       0.00       0.00       1.12      14.11       0.21      14.33        0.17    47.25   0.857
  sub12                     16.73       0.00       0.00       1.83      13.37       0.35      13.71        0.12    35.87   0.820
  sub14                     16.73       0.00       0.00       1.27      13.95       0.23      14.19        0.14    37.43   0.848
  sub15                     16.73       0.00       0.00       4.53      10.73       0.49      11.22        0.19    51.47   0.671
  sub16                     16.73       0.00       0.00       4.88      10.29       0.64      10.93        0.11    32.57   0.653
  sub17                     16.73       0.00       0.00       4.74      10.44       0.61      11.05        0.09    26.81   0.661
  sub22                     16.73       0.00       0.00       6.60       8.75       0.59       9.34        0.59   160.16   0.558
  sub23                     16.73       0.00       0.00       5.59       9.67       0.60      10.27        0.49   134.74   0.614
  sub60                     16.73       0.00       0.00       1.94      11.65       0.06      11.71        3.55   386.89   0.700
  sub61                     16.73       0.00       0.00       2.75      11.65       0.09      11.73        3.62   476.87   0.701
  sub62                     16.73       0.00       0.00       1.26      12.72       0.07      12.79        3.93   491.27   0.765
  sub63                     16.73       0.00       0.00       4.75      10.14       0.10      10.23        3.10   437.54   0.612
  sub64                     16.73       0.00       0.00       2.45      11.19       0.06      11.26        3.42   367.58   0.673
  sub65                     16.73       0.00       0.00       2.11      11.40       0.06      11.46        3.52   372.98   0.685
  sub66                     16.73       0.00       0.00       4.79       9.55       0.06       9.61        2.95   336.52   0.575
  sub67                     16.73       0.00       0.00       1.24      13.25       0.09      13.35        4.12   605.48   0.798
  sub68                     16.73       0.00       0.00       2.25      12.20       0.10      12.30        3.78   521.64   0.735
  sub69                     16.73       0.00       0.00       2.37      12.50       0.14      12.64        2.95   482.20   0.755
  sub70                     16.73      12.90       0.00       8.98      17.16       1.09      18.25        4.18   460.88   0.616
  sub71                     16.73       0.00       0.00       1.27      12.46       0.07      12.53        2.96   345.19   0.749
  sub72                     16.73       0.00       0.00       1.14      10.39       0.03      10.43        2.12   185.81   0.623
  sub73                     16.73      17.77       0.00       9.78      19.72       1.38      21.10        4.96   482.28   0.612
  sub74                     16.73       0.00       0.00      12.48       3.71       0.07       3.78        1.51   261.10   0.226
  
  
  ******************
  Node Depth Summary
  ******************
  
  ---------------------------------------------------------------------------------
                                 Average  Maximum  Maximum  Time of Max    Reported
                                   Depth    Depth      HGL   Occurrence   Max Depth
  Node                 Type       Meters   Meters   Meters  days hr:min      Meters
  ---------------------------------------------------------------------------------
  WS02001211           JUNCTION     0.63     0.76     5.59     0  07:03        0.76
  WS02001212           JUNCTION     0.36     0.49     5.55     0  02:15        0.49
  WS02001213           JUNCTION     0.61     0.76     5.52     0  02:15        0.76
  WS02003069           JUNCTION     0.45     0.63     5.21     0  02:15        0.63
  WS02003072           JUNCTION     0.51     0.68     5.05     0  02:15        0.68
  WS02003073           JUNCTION     0.31     0.42     4.49     0  02:15        0.42
  WS02003060           JUNCTION     0.40     0.56     5.49     0  02:14        0.56
  WS02003066           JUNCTION     0.25     0.36     5.91     0  01:57        0.36
  WS02003059           JUNCTION     0.67     0.82     5.51     0  02:15        0.82
  WS02003067           JUNCTION     0.61     0.79     6.11     0  01:56        0.79
  WS02004401           JUNCTION     0.74     1.12     7.12     0  01:53        1.12
  WS02004402           JUNCTION     0.77     1.13     7.09     0  01:53        1.12
  WS02004403           JUNCTION     0.78     1.11     7.04     0  01:53        1.11
  WS02004404           JUNCTION     0.86     1.16     7.01     0  01:53        1.16
  WS02004406           JUNCTION     0.85     1.11     6.94     0  01:51        1.11
  WS02004409           JUNCTION     0.55     0.86     6.63     0  01:56        0.86
  WS02004410           JUNCTION     0.57     0.86     6.58     0  01:56        0.86
  WS02004411           JUNCTION     0.58     0.85     6.53     0  01:56        0.85
  WS02004412           JUNCTION     0.59     0.84     6.48     0  01:56        0.84
  WS02004413           JUNCTION     0.74     0.98     6.45     0  01:57        0.98
  WS02004405           JUNCTION     0.85     1.14     6.99     0  01:51        1.14
  WS02006109           JUNCTION     0.83     1.27     7.89     0  01:55        1.27
  WS02006110           JUNCTION     0.80     1.12     7.71     0  01:54        1.12
  WS02006111           JUNCTION     0.26     0.63     7.34     0  01:53        0.63
  WS02006112           JUNCTION     0.92     1.40     7.29     0  01:54        1.40
  WS02006113           JUNCTION     0.38     0.63     7.52     0  01:54        0.63
  WS02006115           JUNCTION     0.64     1.08     7.22     0  01:53        1.08
  WS02006116           JUNCTION     0.72     1.14     7.18     0  01:53        1.13
  WS02006230           JUNCTION     0.82     1.40     8.15     0  01:54        1.39
  WS02006231           JUNCTION     0.56     1.03     8.15     0  01:54        1.02
  WS02006232           JUNCTION     0.69     1.12     8.16     0  01:54        1.11
  WS02006234           JUNCTION     0.61     1.02     8.18     0  01:49        1.00
  WS02006235           JUNCTION     0.63     1.03     8.19     0  01:49        1.00
  WS02006238           JUNCTION     0.66     1.06     8.20     0  01:49        1.02
  WS02006240           JUNCTION     0.55     0.98     8.27     0  01:49        0.89
  WS02006242           JUNCTION     0.60     1.23     8.50     0  01:49        0.93
  WS02006243           JUNCTION     0.48     1.16     8.58     0  01:49        0.79
  WS02006245           JUNCTION     0.45     0.77     8.25     0  01:50        0.74
  WS02006247           JUNCTION     0.46     0.76     8.26     0  01:51        0.74
  WS02006248           JUNCTION     0.40     0.67     8.25     0  01:51        0.65
  WS02006249           JUNCTION     0.43     0.65     8.25     0  01:51        0.64
  WS02006239           JUNCTION     0.61     1.02     8.23     0  01:49        0.97
  WS02006251           JUNCTION     0.41     0.64     8.31     0  01:50        0.64
  WS02006252           JUNCTION     0.33     0.59     8.83     0  06:40        0.59
  WS02006253           JUNCTION     0.44     0.68     8.32     0  01:50        0.68
  WS02006256           JUNCTION     1.09     2.35     9.28     0  00:00        1.23
  WS02004138           JUNCTION     0.14     0.19     7.44     0  07:00        0.19
  WS02004407           JUNCTION     0.25     0.37     6.68     0  01:54        0.37
  WS02006228           JUNCTION     0.84     1.40     8.05     0  01:54        1.39
  WS02006229           JUNCTION     0.83     1.44     8.13     0  01:53        1.44
  WS02006280           JUNCTION     0.09     0.25     8.52     0  01:55        0.25
  WS02006284           JUNCTION     0.39     0.64     9.04     0  01:55        0.64
  WS02006287           JUNCTION     0.13     0.38     9.33     0  01:54        0.38
  WSF200               JUNCTION     0.25     0.39     5.62     0  01:57        0.39
  HS02004901           JUNCTION     0.15     0.36    10.18     0  01:52        0.36
  HS02004881           JUNCTION     0.01     0.05     9.08     0  01:54        0.05
  HS02004876           JUNCTION     0.06     0.16     9.19     0  01:55        0.16
  HS02004870           JUNCTION     0.02     0.09     9.38     0  01:55        0.09
  HS02004862           JUNCTION     0.03     0.11     9.49     0  01:55        0.11
  HS02004856           JUNCTION     0.09     0.15     9.58     0  01:55        0.15
  HS02004852           JUNCTION     0.02     0.07     9.59     0  01:55        0.07
  HS02004848           JUNCTION     0.02     0.07     9.67     0  01:55        0.07
  HS02004842           JUNCTION     0.34     0.40     9.67     0  01:55        0.40
  HS02004837           JUNCTION     0.04     0.09     9.67     0  01:55        0.09
  HS02004830           JUNCTION     0.05     0.10     9.57     0  01:56        0.10
  HS02004824           JUNCTION     0.03     0.12     9.53     0  01:55        0.12
  HS02004817           JUNCTION     0.47     0.69     9.53     0  01:55        0.69
  HS02004807           JUNCTION     0.15     0.36     9.53     0  01:55        0.36
  HS02004802           JUNCTION     0.19     0.39     9.52     0  01:55        0.39
  HS02004799           JUNCTION     0.15     0.45     9.66     0  01:53        0.45
  HS02004792           JUNCTION     0.05     0.20     9.73     0  01:52        0.20
  HS02004788           JUNCTION     0.04     0.15    10.05     0  01:53        0.15
  HS02004785           JUNCTION     0.07     0.23    10.14     0  01:52        0.23
  HS02004777           JUNCTION     0.17     0.37    10.17     0  01:52        0.37
  HS02004770           JUNCTION     0.14     0.35    10.18     0  01:52        0.35
  HS02004480           JUNCTION     0.11     0.37     9.61     0  01:53        0.37
  HS02004479           JUNCTION     0.15     0.41     9.61     0  01:53        0.41
  HS02004478           JUNCTION     0.08     0.27     9.50     0  01:54        0.27
  YS02001745           JUNCTION     0.79     0.93     8.44     0  02:50        0.93
  YS02001748           JUNCTION     1.20     1.37     8.45     0  02:41        1.36
  YS02001751           JUNCTION     1.39     1.96     8.84     0  01:48        1.55
  YS02001754           JUNCTION     1.64     1.94     8.55     0  01:48        1.82
  YS02001762           JUNCTION     1.84     2.05     8.45     0  02:36        2.03
  YS02001765           JUNCTION     1.80     1.99     8.44     0  02:40        1.98
  YS02001767           JUNCTION     1.76     1.94     8.43     0  02:39        1.94
  YS02001770           JUNCTION     1.75     1.93     8.42     0  01:47        1.92
  YS02001774           JUNCTION     1.82     2.01     8.44     0  01:47        1.98
  YS02001779           JUNCTION     1.56     1.68     8.37     0  01:47        1.68
  YS02001882           JUNCTION     0.76     1.65     8.37     0  01:58        1.62
  YS02001884           JUNCTION     0.85     1.74     8.36     0  01:58        1.73
  YS02001759           JUNCTION     1.88     2.08     8.44     0  02:41        2.07
  YS02001887           JUNCTION     0.93     1.81     8.35     0  01:58        1.80
  YS02001890           JUNCTION     0.96     1.81     8.32     0  01:58        1.81
  YS02001898           JUNCTION     0.73     1.57     8.30     0  01:58        1.56
  YS02001901           JUNCTION     0.84     1.68     8.29     0  01:58        1.67
  YS02001904           JUNCTION     0.82     1.64     8.27     0  01:58        1.63
  YS02001907           JUNCTION     1.15     1.96     8.25     0  01:58        1.96
  YS02001910           JUNCTION     0.94     1.79     8.30     0  02:00        1.78
  YS02001915           JUNCTION     0.74     1.61     8.33     0  02:00        1.60
  YS02001918           JUNCTION     0.47     1.31     8.37     0  01:59        1.29
  YS02001619           JUNCTION     1.35     1.61     8.54     0  01:47        1.61
  YS02001629           JUNCTION     1.70     1.85     8.40     0  01:47        1.85
  YS02001641           JUNCTION     1.80     1.93     8.37     0  01:56        1.93
  YS02001644           JUNCTION     1.80     1.92     8.35     0  01:51        1.92
  YS02001652           JUNCTION     1.65     2.16     8.76     0  02:08        2.03
  YS02001655           JUNCTION     1.42     2.20     9.05     0  02:08        1.97
  YS02001920           JUNCTION     0.57     1.39     8.40     0  01:59        1.37
  YS02001923           JUNCTION     0.39     1.16     8.42     0  01:59        1.13
  YS02001926           JUNCTION     0.40     1.00     8.44     0  01:59        0.97
  YS02001929           JUNCTION     0.25     0.76     8.46     0  01:59        0.71
  YS02001658           JUNCTION     1.14     2.30     9.44     0  02:11        1.92
  YS02001661           JUNCTION     0.90     2.46     9.86     0  02:10        1.80
  YS02001664           JUNCTION     0.40     0.57     8.49     0  03:36        0.56
  YS02001622           JUNCTION     1.37     1.62     8.52     0  01:47        1.62
  YS02001633           JUNCTION     1.80     1.94     8.40     0  02:12        1.94
  YS02001649           JUNCTION     1.85     2.05     8.44     0  02:06        2.05
  YS02001757           JUNCTION     1.97     2.18     8.44     0  02:39        2.17
  YS02001895           JUNCTION     0.72     1.57     8.31     0  02:25        1.56
  YS02001625           JUNCTION     1.66     1.78     8.38     0  01:46        1.78
  YS02163301           JUNCTION     1.74     1.90     8.41     0  01:49        1.88
  YS02163601           JUNCTION     1.85     1.99     8.39     0  02:04        1.98
  YS02164001           JUNCTION     1.78     1.92     8.38     0  01:51        1.91
  YS02001647           JUNCTION     1.63     1.80     8.41     0  02:07        1.79
  YSB1154              JUNCTION     0.29     0.56     9.62     0  01:53        0.56
  YSB6556              JUNCTION     0.18     0.44     9.61     0  01:53        0.44
  YSB1174              JUNCTION     0.24     0.50     9.61     0  01:53        0.50
  YSB1171              JUNCTION     0.44     0.71     9.61     0  01:53        0.71
  YS02006553           JUNCTION     1.15     2.14     8.43     0  01:58        1.96
  YS02006561           JUNCTION     0.47     1.76     8.42     0  01:58        1.08
  YS02006556           JUNCTION     1.11     2.33     8.64     0  01:58        1.93
  YS02006558           JUNCTION     1.15     2.46     8.73     0  01:58        1.96
  YS02001783           JUNCTION     0.74     2.26     8.40     0  01:58        1.47
  YS02001784           JUNCTION     0.75     2.28     8.35     0  01:58        1.41
  YS02001786           JUNCTION     0.68     2.23     8.26     0  01:58        1.26
  YS02001788           JUNCTION     0.61     2.28     8.26     0  01:58        1.13
  YS02001790           JUNCTION     0.77     1.96     7.60     0  01:58        1.29
  YS02001791           JUNCTION     0.77     1.96     7.43     0  01:58        1.27
  YS02001793           JUNCTION     1.11     2.01     6.85     0  01:58        1.80
  WS02004139           JUNCTION     0.56     0.70     5.61     0  07:02        0.70
  WSC                  OUTFALL      0.31     0.42     1.09     0  02:16        0.42
  3                    OUTFALL      0.13     0.23     6.23     0  00:00        0.22
  4                    OUTFALL      0.02     0.15     7.15     0  01:51        0.14
  5                    OUTFALL      0.00     0.00     5.00     0  00:00        0.00
  JK-storage           STORAGE      4.01     5.80     6.60     0  01:58        5.80
  CC-storage           STORAGE      1.19     1.41     8.41     0  02:54        1.41
  XR-storage           STORAGE      7.33     7.72     5.72     0  02:03        7.72
  
  
  *******************
  Node Inflow Summary
  *******************
  
  -------------------------------------------------------------------------------------------------
                                  Maximum  Maximum                  Lateral       Total        Flow
                                  Lateral    Total  Time of Max      Inflow      Inflow     Balance
                                   Inflow   Inflow   Occurrence      Volume      Volume       Error
  Node                 Type           LPS      LPS  days hr:min    10^6 ltr    10^6 ltr     Percent
  -------------------------------------------------------------------------------------------------
  WS02001211           JUNCTION      7.35   371.32     0  07:00       0.207        5.85       0.497
  WS02001212           JUNCTION      0.00   361.49     0  07:02           0        5.82       0.278
  WS02001213           JUNCTION      0.00   359.94     0  07:03           0        5.81       0.331
  WS02003069           JUNCTION      0.32  1070.58     0  02:15     0.00902        15.3       0.138
  WS02003072           JUNCTION      0.00  1070.57     0  02:15           0        15.3       0.183
  WS02003073           JUNCTION      1.82  1072.45     0  02:15      0.0514        15.3       0.196
  WS02003060           JUNCTION     16.53  1070.30     0  02:14       0.466        15.3       0.134
  WS02003066           JUNCTION      0.00   817.35     0  01:57           0         9.1       0.036
  WS02003059           JUNCTION      0.00   359.79     0  07:04           0        5.79       0.530
  WS02003067           JUNCTION      0.00   817.21     0  01:57           0        9.11       0.079
  WS02004401           JUNCTION      0.00   820.84     0  01:54           0        9.29       0.189
  WS02004402           JUNCTION      0.00   820.68     0  01:54           0        9.28       0.183
  WS02004403           JUNCTION      0.00   820.71     0  01:54           0        9.26       0.169
  WS02004404           JUNCTION      0.16   820.97     0  01:54     0.00457        9.25       0.130
  WS02004406           JUNCTION      0.00   821.23     0  01:54           0        9.22       0.317
  WS02004409           JUNCTION      0.00   820.69     0  01:54           0        9.18       0.121
  WS02004410           JUNCTION      0.00   818.13     0  01:55           0        9.17       0.142
  WS02004411           JUNCTION      0.00   817.34     0  01:56           0        9.16       0.150
  WS02004412           JUNCTION      0.00   817.18     0  01:56           0        9.15       0.169
  WS02004413           JUNCTION      0.00   817.17     0  01:57           0        9.13       0.263
  WS02004405           JUNCTION      0.04   821.06     0  01:54     0.00107        9.24       0.197
  WS02006109           JUNCTION      1.23   798.08     0  01:52      0.0347         9.3       0.226
  WS02006110           JUNCTION      0.00   798.08     0  01:52           0        9.28       0.183
  WS02006111           JUNCTION      0.00   793.58     0  01:54           0        9.26       0.036
  WS02006112           JUNCTION     26.81   820.64     0  01:54      0.0948        9.35       0.256
  WS02006113           JUNCTION      0.00   798.06     0  01:52           0        9.26       0.082
  WS02006115           JUNCTION      0.00   820.60     0  01:54           0        9.32       0.170
  WS02006116           JUNCTION      0.00   820.94     0  01:54           0        9.31       0.166
  WS02006230           JUNCTION     10.28   383.46     0  06:45        0.29        6.61       0.204
  WS02006231           JUNCTION      0.00   374.16     0  06:43           0        6.33       0.098
  WS02006232           JUNCTION      0.00   374.58     0  06:43           0        6.34       0.223
  WS02006234           JUNCTION      0.00   376.15     0  06:42           0        6.34       0.085
  WS02006235           JUNCTION      0.00   377.71     0  06:42           0         6.4       0.146
  WS02006238           JUNCTION      0.00   328.63     0  06:40           0        4.31       0.138
  WS02006240           JUNCTION      0.00   332.27     0  06:40           0         4.3       0.227
  WS02006242           JUNCTION      0.00   335.44     0  06:41           0        4.31       0.297
  WS02006243           JUNCTION      0.00   335.64     0  06:41           0        4.31       0.136
  WS02006245           JUNCTION      0.00   335.28     0  06:41           0        4.32       0.189
  WS02006247           JUNCTION      0.00   335.77     0  06:40           0        4.32       0.148
  WS02006248           JUNCTION      0.00   337.13     0  06:40           0        4.33       0.089
  WS02006249           JUNCTION      0.00   412.79     0  03:20           0        4.79       0.218
  WS02006239           JUNCTION      0.00   330.50     0  06:40           0         4.3       0.191
  WS02006251           JUNCTION      0.08   414.03     0  03:20     0.00217        4.81       0.177
  WS02006252           JUNCTION      0.00   399.95     0  06:40           0        4.26       0.010
  WS02006253           JUNCTION      3.66   142.87     0  01:54      0.0117       0.548       0.601
  WS02006256           JUNCTION      0.00   600.00     0  00:00           0        7.63       0.025
  WS02004138           JUNCTION      0.00   379.98     0  07:00           0        5.67       0.076
  WS02004407           JUNCTION      0.00   821.00     0  01:54           0        9.19       0.057
  WS02006228           JUNCTION      0.00   796.85     0  01:52           0        9.28       0.150
  WS02006229           JUNCTION      0.00   800.66     0  01:51           0        9.29       0.124
  WS02006280           JUNCTION      0.00   656.04     0  01:55           0         2.7       0.002
  WS02006284           JUNCTION      0.10   655.96     0  01:55      0.0027         2.7       0.039
  WS02006287           JUNCTION      0.00   655.81     0  01:54           0         2.7       0.027
  WSF200               JUNCTION      0.00   817.48     0  01:57           0         9.1       0.031
  HS02004901           JUNCTION     32.57    32.57     0  01:50       0.114       0.115       1.559
  HS02004881           JUNCTION     13.82   139.59     0  01:54      0.0479       0.529       0.099
  HS02004876           JUNCTION     24.51   126.37     0  01:54      0.0923       0.482       0.114
  HS02004870           JUNCTION     25.44   102.13     0  01:54      0.0906        0.39       0.027
  HS02004862           JUNCTION     23.11    77.53     0  01:55       0.099       0.299       0.058
  HS02004856           JUNCTION     19.02    54.51     0  01:55      0.0682       0.202       0.719
  HS02004852           JUNCTION      0.00    36.10     0  01:55           0       0.134       0.042
  HS02004848           JUNCTION     50.49    50.49     0  01:57       0.223       0.223       0.020
  HS02004842           JUNCTION      0.00    15.55     0  02:06           0       0.102      14.562
  HS02004837           JUNCTION     49.08    62.50     0  01:55       0.337       0.426       0.191
  HS02004830           JUNCTION      0.15    62.61     0  01:55     0.00423       0.416       0.297
  HS02004824           JUNCTION     60.06   122.21     0  01:58       0.286       0.701       0.077
  HS02004817           JUNCTION      0.60   124.03     0  01:59      0.0169       0.718       2.378
  HS02004807           JUNCTION     47.25   168.28     0  01:57       0.166       0.868       0.499
  HS02004802           JUNCTION      0.00   169.24     0  01:58           0       0.864       0.461
  HS02004799           JUNCTION     37.43   414.52     0  01:52       0.135        1.57       0.166
  HS02004792           JUNCTION    160.44   377.30     0  01:52       0.598        1.44       0.027
  HS02004788           JUNCTION     53.14   218.54     0  01:52        0.24       0.839       0.046
  HS02004785           JUNCTION      0.15   165.59     0  01:52     0.00423       0.601       0.082
  HS02004777           JUNCTION      0.03   165.80     0  01:51    0.000846       0.601       0.872
  HS02004770           JUNCTION    134.74   166.64     0  01:51       0.489       0.602       0.515
  HS02004480           JUNCTION      0.00   492.23     0  01:53           0        1.85       0.065
  HS02004479           JUNCTION      0.00    78.00     0  01:53           0       0.292       0.252
  HS02004478           JUNCTION      0.00   655.76     0  01:54           0         2.7       0.013
  YS02001745           JUNCTION    386.89   386.89     0  02:16        3.55        3.55       0.324
  YS02001748           JUNCTION      0.04   398.14     0  02:16     0.00127        3.54       0.650
  YS02001751           JUNCTION      0.01   397.65     0  02:16     0.00031        3.52       0.679
  YS02001754           JUNCTION      0.26   397.80     0  02:16     0.00733         3.5       0.702
  YS02001762           JUNCTION      0.00   436.87     0  02:03           0        2.11       1.004
  YS02001765           JUNCTION      0.00   436.87     0  02:03           0        2.11       1.160
  YS02001767           JUNCTION      0.54   436.93     0  02:03      0.0151        2.13       1.697
  YS02001770           JUNCTION    491.42   620.14     0  03:00        3.94        4.45       0.705
  YS02001774           JUNCTION      0.00   620.15     0  03:00           0        2.83       0.884
  YS02001779           JUNCTION      0.01   620.16     0  03:00    0.000141         2.8       0.548
  YS02001882           JUNCTION      0.00    19.91     0  01:53           0      0.0237      10.548
  YS02001884           JUNCTION      0.00    40.61     0  01:53           0       0.059      12.184
  YS02001759           JUNCTION    476.91   869.81     0  02:04        3.62        5.18       0.440
  YS02001887           JUNCTION    605.93   606.24     0  02:16        4.13        4.16       0.214
  YS02001890           JUNCTION      0.00   606.12     0  02:15           0        4.11       0.231
  YS02001898           JUNCTION      0.00   525.78     0  01:58           0           4       0.086
  YS02001901           JUNCTION      0.00   526.41     0  01:58           0           4       0.173
  YS02001904           JUNCTION      0.00   526.40     0  01:58           0        3.99       0.161
  YS02001907           JUNCTION      0.00  1078.93     0  02:00           0        9.13       0.267
  YS02001910           JUNCTION      0.00   561.59     0  02:00           0        5.15       0.242
  YS02001915           JUNCTION    345.21   561.50     0  02:00        2.96        5.19       0.118
  YS02001918           JUNCTION      0.00   279.70     0  02:00           0        2.25       0.089
  YS02001619           JUNCTION    336.52   336.52     0  02:16        2.95        2.95       0.413
  YS02001629           JUNCTION      0.00   250.27     0  01:47           0        1.45       2.005
  YS02001641           JUNCTION      0.00   424.78     0  01:51           0        4.86       0.430
  YS02001644           JUNCTION    367.62  1418.70     0  03:00        3.42        12.4       0.208
  YS02001652           JUNCTION      0.00   478.09     0  02:16           0        3.05       0.749
  YS02001655           JUNCTION      0.15   477.96     0  02:16     0.00434        3.07       0.819
  YS02001920           JUNCTION      2.87   279.79     0  02:00      0.0809        2.23       0.141
  YS02001923           JUNCTION      0.04   284.64     0  02:00     0.00106        2.14       0.045
  YS02001926           JUNCTION      0.05   202.73     0  02:00     0.00147        2.13       0.156
  YS02001929           JUNCTION    185.81   185.81     0  03:01        2.12        2.12       0.029
  YS02001658           JUNCTION      0.00   506.31     0  02:17           0        3.09       0.777
  YS02001661           JUNCTION      0.00   770.40     0  02:04           0        3.77      -0.047
  YS02001664           JUNCTION    437.54   437.54     0  02:16         3.1        3.78       0.193
  YS02001622           JUNCTION      0.00   336.65     0  02:16           0        2.94       1.091
  YS02001633           JUNCTION    373.18   425.20     0  01:51        3.53        4.93       0.649
  YS02001649           JUNCTION      0.00   991.12     0  01:58           0        6.32       0.583
  YS02001757           JUNCTION      0.00  2135.40     0  02:03           0        10.3       0.901
  YS02001895           JUNCTION      0.00   525.45     0  01:58           0           4       0.131
  YS02001625           JUNCTION      0.00   336.56     0  02:16           0        2.91       1.365
  YS02163301           JUNCTION      0.00   225.29     0  01:48           0        1.44       1.677
  YS02163601           JUNCTION      0.11   425.05     0  01:51      0.0031        4.87       0.615
  YS02164001           JUNCTION      0.00   424.85     0  01:51           0        4.85       0.408
  YS02001647           JUNCTION      0.00   691.65     0  02:56           0        5.35       0.530
  YSB1154              JUNCTION     43.61    43.61     0  01:53       0.163       0.164       0.887
  YSB6556              JUNCTION      0.00    43.64     0  01:53           0       0.165       0.765
  YSB1174              JUNCTION     35.87    35.87     0  01:50        0.12        0.12       1.077
  YSB1171              JUNCTION      0.00    78.04     0  01:52           0       0.291       2.227
  YS02006553           JUNCTION      0.00   695.45     0  01:58           0        7.16       0.219
  YS02006561           JUNCTION      0.00  1132.83     0  01:58           0        10.9       0.007
  YS02006556           JUNCTION      0.00   695.22     0  01:58           0        7.16       0.160
  YS02006558           JUNCTION    522.52  1132.96     0  01:58        3.81        10.9       0.049
  YS02001783           JUNCTION      0.00  1130.86     0  01:58           0        10.9       0.023
  YS02001784           JUNCTION      1.06  1131.72     0  01:58      0.0299        10.9       0.037
  YS02001786           JUNCTION      0.06  1131.66     0  01:58     0.00159        10.9       0.035
  YS02001788           JUNCTION      0.07  1135.26     0  01:58       0.002        10.9       0.017
  YS02001790           JUNCTION      0.15  1106.26     0  01:58     0.00437        10.9       0.027
  YS02001791           JUNCTION      0.00  1165.52     0  01:57           0        10.9       0.008
  YS02001793           JUNCTION      0.00  1079.95     0  01:56           0        10.9       0.003
  WS02004139           JUNCTION      0.32   378.98     0  07:00     0.00905        5.68       0.575
  WSC                  OUTFALL       0.00  1072.84     0  02:16           0        15.3       0.000
  3                    OUTFALL       0.00   597.65     0  00:00           0        5.51       0.000
  4                    OUTFALL       0.00   213.30     0  01:51           0       0.456       0.000
  5                    OUTFALL       0.00     0.00     0  00:00           0           0       0.000 ltr
  JK-storage           STORAGE       0.00  1063.59     0  01:58           0        11.1      -2.310
  CC-storage           STORAGE       0.00  2135.27     0  02:03           0         8.1       0.801
  XR-storage           STORAGE     844.69   844.69     0  03:01        12.1        12.7      -0.001
  
  
  **********************
  Node Surcharge Summary
  **********************
  
  Surcharging occurs when water rises above the top of the highest conduit.
  ---------------------------------------------------------------------
                                               Max. Height   Min. Depth
                                   Hours       Above Crown    Below Rim
  Node                 Type      Surcharged         Meters       Meters
  ---------------------------------------------------------------------
  WS02004401           JUNCTION        0.55          0.125        1.535
  WS02004402           JUNCTION        0.58          0.125        1.615
  WS02004403           JUNCTION        0.59          0.113        1.917
  WS02004404           JUNCTION        0.84          0.164        2.616
  WS02004406           JUNCTION        0.71          0.114        2.336
  WS02004405           JUNCTION        0.76          0.145        2.655
  WS02006109           JUNCTION        2.02          0.455        1.365
  WS02006110           JUNCTION        1.43          0.212        1.638
  WS02006112           JUNCTION        1.59          0.403        1.277
  WS02006115           JUNCTION        0.36          0.070        2.180
  WS02006116           JUNCTION        0.41          0.076        2.214
  WS02006230           JUNCTION        0.79          0.321        1.249
  WS02006231           JUNCTION        1.30          0.320        1.210
  WS02006232           JUNCTION        1.97          0.421        1.059
  WS02006234           JUNCTION        1.41          0.300        0.940
  WS02006235           JUNCTION        1.71          0.320        0.970
  WS02006238           JUNCTION        1.74          0.337        1.093
  WS02006240           JUNCTION        1.36          0.265        1.125
  WS02006242           JUNCTION        1.66          0.501        0.319
  WS02006243           JUNCTION        0.57          0.447        0.323
  WS02006245           JUNCTION        0.36          0.057        0.793
  WS02006247           JUNCTION        0.23          0.052        0.708
  WS02006239           JUNCTION        1.60          0.280        1.010
  WS02006252           JUNCTION        0.51          0.186        0.914
  WS02006256           JUNCTION        0.01          1.050        0.000
  WS02006228           JUNCTION        2.00          0.568        1.632
  YS02001748           JUNCTION        5.99          0.288        0.902
  YS02001751           JUNCTION        6.02          0.963        0.237
  YS02001754           JUNCTION        6.05          0.893        0.257
  YS02001762           JUNCTION        6.08          1.046        0.104
  YS02001765           JUNCTION        6.08          0.992        0.108
  YS02001767           JUNCTION        6.07          0.942        0.088
  YS02001770           JUNCTION        6.07          0.899        0.021
  YS02001774           JUNCTION        6.08          1.015        0.035
  YS02001779           JUNCTION        6.04          0.680        0.000
  YS02001882           JUNCTION        1.76          0.650        0.180
  YS02001884           JUNCTION        1.79          0.684        0.186
  YS02001759           JUNCTION        6.09          1.079        0.131
  YS02001887           JUNCTION        1.87          0.762        0.188
  YS02001890           JUNCTION        1.90          0.760        0.000
  YS02001898           JUNCTION        1.71          0.537        0.203
  YS02001901           JUNCTION        1.83          0.677        0.193
  YS02001904           JUNCTION        1.81          0.639        0.211
  YS02001907           JUNCTION        2.26          0.950        0.000
  YS02001910           JUNCTION        1.94          0.788        0.312
  YS02001915           JUNCTION        1.74          0.614        0.386
  YS02001918           JUNCTION        1.51          0.306        0.504
  YS02001619           JUNCTION        6.02          0.610        0.000
  YS02001629           JUNCTION        6.02          0.470        0.000
  YS02001641           JUNCTION        6.08          0.935        0.165
  YS02001644           JUNCTION        6.08          0.920        0.000
  YS02001652           JUNCTION        6.05          1.130        0.000
  YS02001655           JUNCTION        6.02          1.200        0.000
  YS02001920           JUNCTION        1.55          0.387        0.753
  YS02001658           JUNCTION        5.99          1.300        0.000
  YS02001661           JUNCTION        0.26          1.390        0.000
  YS02001622           JUNCTION        6.03          0.620        0.000
  YS02001633           JUNCTION        6.08          0.924        0.136
  YS02001649           JUNCTION        6.08          1.050        0.000
  YS02001757           JUNCTION        6.12          1.181        0.029
  YS02001895           JUNCTION        1.73          0.567        0.183
  YS02001625           JUNCTION        6.05          0.780        0.000
  YS02163301           JUNCTION        6.07          0.896        0.134
  YS02163601           JUNCTION        6.09          0.988        0.092
  YS02164001           JUNCTION        6.08          0.920        0.180
  YS02001647           JUNCTION        6.05          0.803        0.097
  YS02006553           JUNCTION        2.32          1.142        0.048
  YS02006561           JUNCTION        1.59          0.964        0.186
  YS02006556           JUNCTION        2.11          1.290        0.060
  YS02006558           JUNCTION        2.09          1.364        0.036
  YS02001783           JUNCTION        2.13          1.463        0.137
  YS02001784           JUNCTION        2.17          1.481        0.009
  YS02001786           JUNCTION        2.07          1.430        0.000
  YS02001788           JUNCTION        2.02          1.480        0.000
  YS02001790           JUNCTION        3.45          1.157        0.000
  YS02001791           JUNCTION        3.58          1.164        0.756
  YS02001793           JUNCTION        3.76          1.015        1.585
  
  
  *********************
  Node Flooding Summary
  *********************
  
  Flooding refers to all water that overflows a node, whether it ponds or not.
  --------------------------------------------------------------------------
                                                             Total   Maximum
                                 Maximum   Time of Max       Flood    Ponded
                        Hours       Rate    Occurrence      Volume     Depth
  Node                 Flooded       LPS   days hr:min    10^6 ltr    Meters
  --------------------------------------------------------------------------
  WS02006256              0.01    406.11      0  00:00       0.001     0.000
  YS02001779              3.50    620.15      0  03:00       2.782     0.000
  YS02001890              0.54     89.41      0  02:16       0.100     0.000
  YS02001907              1.37    585.60      0  02:16       1.963     0.000
  YS02001619              0.01     85.18      0  01:48       0.000     0.000
  YS02001629              0.01    202.61      0  01:47       0.001     0.000
  YS02001644              5.64   1418.70      0  03:00      11.104     0.000
  YS02001652              0.01     21.62      0  02:12       0.000     0.000
  YS02001655              0.01     20.67      0  02:21       0.000     0.000
  YS02001658              0.01     11.99      0  02:14       0.000     0.000
  YS02001661              0.01    170.87      0  02:12       0.000     0.000
  YS02001622              0.01     99.26      0  01:47       0.000     0.000
  YS02001649              0.08     46.90      0  02:12       0.004     0.000
  YS02001625              2.02    326.23      0  02:16       1.444     0.000
  YS02001786              0.01     54.19      0  01:58       0.000     0.000
  YS02001788              0.01    165.30      0  01:58       0.000     0.000
  YS02001790              0.01    128.69      0  01:58       0.000     0.000
  JK-storage              3.14    725.49      0  03:50       3.678     0.000
  XR-storage              5.19    622.55      0  03:20       6.110     0.000
  
  
  **********************
  Storage Volume Summary
  **********************
  
  --------------------------------------------------------------------------------------------------
                         Average     Avg  Evap Exfil       Maximum     Max    Time of Max    Maximum
                          Volume    Pcnt  Pcnt  Pcnt        Volume    Pcnt     Occurrence    Outflow
  Storage Unit           1000 m3    Full  Loss  Loss       1000 m3    Full    days hr:min        LPS
  --------------------------------------------------------------------------------------------------
  JK-storage               0.201      69     0     0         0.291     100       0  01:58     600.00
  CC-storage               3.309      21     0     0         3.933      25       0  02:54     399.95
  XR-storage               0.880      95     0     0         0.926     100       0  02:03     379.98
  
  
  ***********************
  Outfall Loading Summary
  ***********************
  
  -----------------------------------------------------------
                         Flow       Avg       Max       Total
                         Freq      Flow      Flow      Volume
  Outfall Node           Pcnt       LPS       LPS    10^6 ltr
  -----------------------------------------------------------
  WSC                   99.99    619.61   1072.84      15.277
  3                     91.74    278.18    597.65       5.511
  4                     33.57     67.34    213.30       0.456
  5                      0.00      0.00      0.00       0.000
  -----------------------------------------------------------
  System                56.33    965.12   1755.99      21.245
  
  
  ********************
  Link Flow Summary
  ********************
  
  -----------------------------------------------------------------------------
                                 Maximum  Time of Max   Maximum    Max/    Max/
                                  |Flow|   Occurrence   |Veloc|    Full    Full
  Link                 Type          LPS  days hr:min     m/sec    Flow   Depth
  -----------------------------------------------------------------------------
  WS02003066WSF200     CONDUIT    817.48     0  01:57      3.04    0.14    0.29
  WS02006287WS02006284 CONDUIT    655.86     0  01:55      2.36    0.30    0.38
  WS02006284WS02006280 CONDUIT    656.04     0  01:55      2.59    0.27    0.36
  WS02006280WS02006229 CONDUIT    656.05     0  01:55      4.21    0.14    0.25
  WS02006229WS02006228 CONDUIT    796.85     0  01:52      1.59    2.64    1.00
  WS02006256WS02006235 CONDUIT    177.52     0  00:01      2.73    1.88    1.00
  WS02006253WS02006251 CONDUIT    150.82     0  01:51      0.60    0.45    0.93
  WS02006252WS02006251 CONDUIT    400.25     0  06:40      3.19    1.47    1.00
  WS02006251WS02006249 CONDUIT    412.79     0  03:20      1.15    1.19    0.92
  WS02006249WS02006248 CONDUIT    337.13     0  06:40      1.07    1.85    0.92
  WS02006248WS02006247 CONDUIT    335.77     0  06:40      1.03    0.73    0.98
  WS02006247WS02006245 CONDUIT    335.28     0  06:41      0.99    2.66    1.00
  WS02006245WS02006243 CONDUIT    335.64     0  06:41      1.02    0.99    1.00
  WS02006243WS02006242 CONDUIT    335.44     0  06:41      0.94    0.72    1.00
  WS02006242WS02006240 CONDUIT    332.27     0  06:40      0.91    1.32    1.00
  WS02006240WS02006239 CONDUIT    330.50     0  06:40      0.95    1.04    1.00
  WS02006239WS02006238 CONDUIT    328.63     0  06:40      0.90    1.05    1.00
  WS02006238WS02006235 CONDUIT    326.80     0  06:40      1.32    0.73    1.00
  WS02006235WS02006234 CONDUIT    376.15     0  06:42      1.02    3.97    1.00
  WS02006234WS02006232 CONDUIT    374.58     0  06:43      1.17    0.76    1.00
  WS02006232WS02006231 CONDUIT    374.16     0  06:43      1.04    0.78    1.00
  WS02006231WS02006230 CONDUIT    373.18     0  06:45      1.32    5.66    1.00
  WS02006230WS02006229 CONDUIT    383.07     0  06:46      1.00    8.52    1.00
  WS02006228WS02006109 CONDUIT    796.85     0  01:52      1.59    3.48    1.00
  WS02006116WS02004401 CONDUIT    820.84     0  01:54      1.05    1.13    1.00
  WS02006115WS02006116 CONDUIT    820.94     0  01:54      1.05    1.05    1.00
  WS02006113WS02006111 CONDUIT    793.58     0  01:54      2.63    0.95    0.79
  WS02006112WS02006115 CONDUIT    820.60     0  01:54      1.04    0.48    1.00
  WS02006111WS02006112 CONDUIT    795.21     0  01:54      1.78    0.38    0.89
  WS02006110WS02006113 CONDUIT    798.06     0  01:52      1.74    0.73    0.89
  WS02006109WS02006110 CONDUIT    798.08     0  01:52      1.59    1.53    1.00
  WS02004411WS02004412 CONDUIT    817.18     0  01:56      1.15    1.16    0.85
  WS02004401WS02004402 CONDUIT    820.68     0  01:54      1.04    0.99    1.00
  WS02004413WS02003067 CONDUIT    817.21     0  01:57      1.41    0.35    0.69
  WS02004412WS02004413 CONDUIT    817.17     0  01:57      1.09    0.55    0.91
  WS02004410WS02004411 CONDUIT    817.34     0  01:56      1.14    1.12    0.86
  WS02004409WS02004410 CONDUIT    818.13     0  01:55      1.14    1.06    0.86
  WS02004407WS02004409 CONDUIT    820.69     0  01:54      1.67    0.29    0.62
  WS02004406WS02004407 CONDUIT    821.00     0  01:54      1.43    0.37    0.68
  WS02004405WS02004406 CONDUIT    821.23     0  01:54      1.05    1.62    1.00
  WS02004404WS02004405 CONDUIT    821.02     0  01:54      1.05    8.04    1.00
  WS02004403WS02004404 CONDUIT    820.81     0  01:54      1.05    0.59    1.00
  WS02004402WS02004403 CONDUIT    820.71     0  01:54      1.04    1.18    1.00
  WS02004139WS02001211 CONDUIT    363.97     0  07:00      0.80    0.46    0.56
  WS02004138WS02004139 CONDUIT    378.66     0  07:00      3.34    0.08    0.42
  WS02003067WS02003066 CONDUIT    817.35     0  01:57      1.53    0.26    0.48
  WS02001213WS02003059 CONDUIT    359.79     0  07:04      0.80    0.59    0.78
  WS02001212WS02001213 CONDUIT    359.94     0  07:03      1.19    0.56    0.47
  WS02001211WS02001212 CONDUIT    361.49     0  07:02      0.73    0.28    0.62
  WS02003072WS02003073 CONDUIT   1070.63     0  02:15      1.81    2.31    0.52
  WS02003069WS02003072 CONDUIT   1070.57     0  02:15      1.69    0.52    0.55
  WS02003060WS02003069 CONDUIT   1070.26     0  02:15      1.92    0.42    0.49
  WS02003059WS02003060 CONDUIT    360.61     0  07:04      0.82    0.24    0.69
  HS02004901HS02004770 CONDUIT     31.95     0  01:52      0.09    0.12    0.51
  HS02004876HS02004881 CONDUIT    126.38     0  01:55      1.20    1.34    0.15
  HS02004870HS02004876 CONDUIT    102.10     0  01:55      0.82    0.07    0.18
  HS02004842HS02004848 CONDUIT     15.55     0  02:06      0.07    0.01    0.33
  HS02004837HS02004842 CONDUIT     15.96     0  02:07      0.41    0.01    0.35
  HS02004830HS02004837 CONDUIT     62.46     0  01:55      0.66    0.06    0.14
  HS02004824HS02004830 CONDUIT     62.57     0  01:56      0.62    0.08    0.16
  HS02004817HS02004824 CONDUIT    123.43     0  01:59      0.31    0.06    0.58
  HS02004770HS02004777 CONDUIT    165.77     0  01:51      0.46    0.30    0.52
  HS02004799HS02004480 CONDUIT    414.30     0  01:53      1.02    0.52    0.58
  HS02004792HS02004799 CONDUIT    377.20     0  01:52      1.15    0.23    0.47
  HS02004788HS02004792 CONDUIT    218.44     0  01:53      1.24    0.14    0.25
  HS02004785HS02004788 CONDUIT    165.54     0  01:53      0.86    1.25    0.27
  HS02004777HS02004785 CONDUIT    165.44     0  01:52      0.54    0.20    0.44
  HS02004480HS02004478 CONDUIT    492.13     0  01:53      1.52    2.07    0.46
  HS02004479HS02004480 CONDUIT     78.31     0  01:54      0.27    0.08    0.55
  HS02004862HS02004870 CONDUIT     77.52     0  01:55      0.79    0.08    0.14
  HS02004848HS02004852 CONDUIT     36.10     0  01:55      0.52    0.04    0.10
  HS02004856HS02004862 CONDUIT     54.46     0  01:55      0.59    0.05    0.13
  HS02004852HS02004856 CONDUIT     36.15     0  01:56      0.33    0.04    0.16
  HS02004802HS02004478 CONDUIT    170.22     0  01:58      0.53    0.15    0.47
  HS02004478WS02006287 CONDUIT    655.81     0  01:54      2.08    0.18    0.35
  HS02004817HS02004807 CONDUIT    125.36     0  01:59      0.24    0.07    0.75
  HS02004807HS02004802 CONDUIT    169.24     0  01:58      0.47    0.32    0.53
  YS02001759YS02001757 CONDUIT    869.66     0  02:04      1.11    0.62    1.00
  YS02001762YS02001759 CONDUIT    436.76     0  02:03      0.56    0.50    1.00
  YS02001765YS02001762 CONDUIT    436.87     0  02:03      0.56    0.41    1.00
  YS02001770YS02001767 CONDUIT    436.40     0  02:03      0.56    1.73    1.00
  YS02001774YS02001770 CONDUIT    620.15     0  03:00      0.79    0.40    1.00
  YS02001779YS02001774 CONDUIT    620.15     0  03:00      0.79    0.31    1.00
  YS02001649YS02001757 CONDUIT    991.31     0  01:58      1.26    0.60    1.00
  YS02001767YS02001765 CONDUIT    436.87     0  02:03      0.56    0.55    1.00
  YS02006561YS02001783 CONDUIT   1130.86     0  01:58      2.27    0.59    1.00
  YS02001783YS02001784 CONDUIT   1130.66     0  01:58      2.25    1.56    1.00
  YS02001784YS02001785 CONDUIT   1131.60     0  01:58      2.25    2.63    1.00
  YS02001788YS02001790 CONDUIT   1106.10     0  01:58      2.66    0.82    1.00
  YS02001790YS02001791 CONDUIT   1165.52     0  01:57      3.30    1.27    1.00
  YS02001791YS02001793 CONDUIT   1079.95     0  01:56      6.32    0.46    1.00
  YS02001910YS02001907 CONDUIT    561.66     0  02:00      0.72    0.32    1.00
  YS02001786YS02001788 CONDUIT   1135.19     0  01:58      2.40    2.19    1.00
  YS02001915YS02001910 CONDUIT    561.59     0  02:00      0.72    0.28    1.00
  YS02001918YS02001915 CONDUIT    279.15     0  02:00      0.46    0.15    1.00
  YS02001923YS02001920 CONDUIT    276.92     0  02:00      0.78    0.12    1.00
  YS02001926YS02001923 CONDUIT    284.61     0  02:00      0.87    0.41    0.96
  YS02001929YS02001926 CONDUIT    202.68     0  02:00      0.93    0.10    0.86
  YS02001920YS02001918 CONDUIT    279.70     0  02:00      0.75    0.27    1.00
  YS02001629YS02163301 CONDUIT    225.29     0  01:48      0.29    0.28    1.00
  YS02001619YS02001622 CONDUIT    336.65     0  02:16      0.76    0.50    1.00
  YS02001622YS02001625 CONDUIT    336.56     0  02:16      0.43    0.18    1.00
  YS02001625YS02001629 CONDUIT    212.55     0  01:47      0.31    0.10    1.00
  YS02163301YS02001633 CONDUIT    225.57     0  01:48      0.29    0.21    1.00
  YS02163601YS02164001 CONDUIT    424.85     0  01:51      0.54    0.38    1.00
  YS02164001YS02001641 CONDUIT    424.78     0  01:51      0.54    0.58    1.00
  YS02001641YS02001644 CONDUIT    424.62     0  01:51      0.54    1.37    1.00
  YS02001647YS02001649 CONDUIT    691.65     0  02:56      0.88    0.37    1.00
  YS02006553YS02006556 CONDUIT    695.22     0  01:58      0.89    0.59    1.00
  YS02006556YS02006558 CONDUIT    695.79     0  01:58      0.89    0.55    1.00
  YSB6556YSB1171       CONDUIT     43.98     0  01:54      0.13    0.05    0.82
  YS02001907YS02006553 CONDUIT    695.45     0  01:58      0.77    0.82    1.00
  YS02006558YS02006561 CONDUIT   1132.83     0  01:58      4.01    2.50    1.00
  YS02001633YS02163601 CONDUIT    424.94     0  01:51      0.54    0.45    1.00
  YS02001644YS02001647 CONDUIT    691.69     0  02:56      0.88    0.41    1.00
  YS02001745YS02001748 CONDUIT    398.10     0  02:16      1.73    0.15    0.96
  YS02001748YS02001751 CONDUIT    397.64     0  02:16      1.25    0.20    1.00
  YS02001751YS02001754 CONDUIT    397.54     0  02:16      1.02    0.19    1.00
  YS02001754YS02001757 CONDUIT    397.70     0  02:16      0.51    0.16    1.00
  YS02001882YS02001884 CONDUIT     19.91     0  01:53      0.12    0.02    1.00
  YS02001884YS02001887 CONDUIT     40.61     0  01:53      0.09    0.05    1.00
  YS02001890YS02001895 CONDUIT    525.45     0  01:58      0.67    0.24    1.00
  YS02001895YS02001898 CONDUIT    525.78     0  01:58      0.67    0.91    1.00
  YS02001898YS02001901 CONDUIT    526.41     0  01:58      0.67    0.34    1.00
  YS02001901YS02001904 CONDUIT    526.40     0  01:58      0.67    0.82    1.00
  YS02001904YS02001907 CONDUIT    527.05     0  01:58      0.67    0.18    1.00
  YS02001887YS02001890 CONDUIT    606.12     0  02:15      0.77    1.04    1.00
  YS02001652YS02001649 CONDUIT    478.05     0  02:16      0.61    0.24    1.00
  YS02001655YS02001652 CONDUIT    478.09     0  02:16      1.09    0.23    1.00
  YS02001658YS02001655 CONDUIT    477.81     0  02:16      1.45    0.20    1.00
  YS02001661YS02001658 CONDUIT    506.31     0  02:17      1.85    0.20    1.00
  YS02001664YS02001661 CONDUIT    770.40     0  02:04      1.75    0.24    0.76
  YSB1154YSB6556       CONDUIT     43.64     0  01:53      0.17    0.08    0.72
  YSB1174YSB1171       CONDUIT     35.15     0  01:50      0.10    0.05    0.83
  YSB1171HS02004479    CONDUIT     78.00     0  01:53      0.54    0.05    0.67
  HS02004881HS02006253 CONDUIT    139.58     0  01:54      2.33    0.03    0.28
  YS02001793JiankangQianchi CONDUIT   1063.59     0  01:58     10.78    0.08    1.00
  YS02001757CaochengTiaoxuchi CONDUIT   2135.27     0  02:03      3.70    0.94    1.00
  WSF200WS02003060     CONDUIT    818.49     0  01:57      2.09    0.18    0.39
  1                    CONDUIT   1072.84     0  02:16      3.39    0.37    0.42
  2                    CONDUIT    213.30     0  01:51      5.94    0.51    0.51
  3                    CONDUIT    597.65     0  00:00     10.05    0.95    0.86
  4                    CONDUIT      0.00     0  00:00      0.00    0.00    0.00
  CC-Pump-1            PUMP       200.00     0  02:10              1.00
  CC-Pump-2            PUMP       200.00     0  04:00              1.00
  JK-Pump-1            PUMP       300.00     0  00:00              1.00
  JK-Pump-2            PUMP       300.00     0  00:00              1.00
  XR-Pump-1            PUMP        95.00     0  06:30              1.00
  XR-Pump-2            PUMP        95.00     0  00:00              1.00
  XR-Pump-3            PUMP        95.00     0  00:00              1.00
  XR-Pump-4            PUMP        95.00     0  00:00              1.00
  
  
  ***************************
  Flow Classification Summary
  ***************************
  
  -------------------------------------------------------------------------------------
                      Adjusted    ---------- Fraction of Time in Flow Class ---------- 
                       /Actual         Up    Down  Sub   Sup   Up    Down  Norm  Inlet 
  Conduit               Length    Dry  Dry   Dry   Crit  Crit  Crit  Crit  Ltd   Ctrl  
  -------------------------------------------------------------------------------------
  WS02003066WSF200        1.00   0.06  0.00  0.00  0.00  0.94  0.00  0.00  0.57  0.00
  WS02006287WS02006284    1.00   0.03  0.01  0.00  0.55  0.41  0.00  0.00  0.65  0.00
  WS02006284WS02006280    1.00   0.04  0.00  0.00  0.00  0.00  0.00  0.96  0.00  0.00
  WS02006280WS02006229    1.00   0.04  0.00  0.00  0.00  0.01  0.00  0.96  0.00  0.00
  WS02006229WS02006228    1.00   0.00  0.00  0.00  0.99  0.00  0.00  0.01  0.00  0.00
  WS02006256WS02006235    1.00   0.00  0.00  0.00  1.00  0.00  0.00  0.00  0.00  0.00
  WS02006253WS02006251    1.00   0.02  0.01  0.00  0.97  0.00  0.00  0.00  0.00  0.00
  WS02006252WS02006251    1.00   0.05  0.00  0.00  0.00  0.00  0.95  0.00  0.00  0.00
  WS02006251WS02006249    1.00   0.00  0.00  0.00  1.00  0.00  0.00  0.00  0.22  0.00
  WS02006249WS02006248    1.00   0.00  0.02  0.00  0.91  0.00  0.08  0.00  0.00  0.00
  WS02006248WS02006247    1.00   0.02  0.00  0.00  0.97  0.00  0.00  0.01  0.11  0.00
  WS02006247WS02006245    1.00   0.02  0.00  0.00  0.97  0.00  0.00  0.02  0.00  0.00
  WS02006245WS02006243    1.00   0.01  0.00  0.00  0.96  0.00  0.00  0.03  0.02  0.00
  WS02006243WS02006242    1.00   0.01  0.00  0.00  0.99  0.00  0.00  0.00  0.17  0.00
  WS02006242WS02006240    1.00   0.00  0.00  0.00  0.99  0.00  0.00  0.00  0.00  0.00
  WS02006240WS02006239    1.00   0.00  0.00  0.00  0.97  0.00  0.00  0.03  0.02  0.00
  WS02006239WS02006238    1.00   0.00  0.00  0.00  1.00  0.00  0.00  0.00  0.00  0.00
  WS02006238WS02006235    1.00   0.00  0.00  0.00  1.00  0.00  0.00  0.00  0.00  0.00
  WS02006235WS02006234    1.00   0.00  0.00  0.00  0.97  0.00  0.03  0.00  0.00  0.00
  WS02006234WS02006232    1.00   0.00  0.00  0.00  1.00  0.00  0.00  0.00  0.00  0.00
  WS02006232WS02006231    1.00   0.00  0.00  0.00  0.99  0.00  0.01  0.00  0.00  0.00
  WS02006231WS02006230    1.00   0.00  0.00  0.00  0.58  0.00  0.41  0.00  0.00  0.00
  WS02006230WS02006229    1.00   0.00  0.00  0.00  0.99  0.00  0.00  0.01  0.01  0.00
  WS02006228WS02006109    1.00   0.00  0.00  0.00  1.00  0.00  0.00  0.00  0.00  0.00
  WS02006116WS02004401    1.00   0.02  0.00  0.00  0.98  0.00  0.00  0.00  0.00  0.00
  WS02006115WS02006116    1.00   0.02  0.00  0.00  0.97  0.00  0.00  0.01  0.01  0.00
  WS02006113WS02006111    1.00   0.02  0.00  0.00  0.08  0.91  0.00  0.00  0.10  0.00
  WS02006112WS02006115    1.00   0.02  0.00  0.00  0.98  0.00  0.00  0.00  0.00  0.00
  WS02006111WS02006112    1.00   0.02  0.00  0.00  0.98  0.00  0.00  0.00  0.88  0.00
  WS02006110WS02006113    1.00   0.01  0.00  0.00  0.98  0.00  0.00  0.00  0.00  0.00
  WS02006109WS02006110    1.00   0.00  0.01  0.00  0.98  0.00  0.00  0.00  0.00  0.00
  WS02004411WS02004412    1.00   0.04  0.00  0.00  0.96  0.00  0.00  0.00  0.00  0.00
  WS02004401WS02004402    1.00   0.02  0.00  0.00  0.98  0.00  0.00  0.00  0.00  0.00
  WS02004413WS02003067    1.00   0.05  0.01  0.00  0.00  0.00  0.94  0.00  0.00  0.00
  WS02004412WS02004413    1.00   0.04  0.00  0.00  0.95  0.00  0.00  0.00  0.00  0.00
  WS02004410WS02004411    1.00   0.04  0.00  0.00  0.96  0.00  0.00  0.00  0.00  0.00
  WS02004409WS02004410    1.00   0.04  0.00  0.00  0.96  0.00  0.00  0.00  0.00  0.00
  WS02004407WS02004409    1.00   0.04  0.00  0.00  0.95  0.01  0.00  0.00  0.80  0.00
  WS02004406WS02004407    1.00   0.00  0.04  0.00  0.96  0.00  0.00  0.00  0.00  0.00
  WS02004405WS02004406    1.00   0.00  0.00  0.00  1.00  0.00  0.00  0.00  0.02  0.00
  WS02004404WS02004405    1.00   0.00  0.00  0.00  1.00  0.00  0.00  0.00  0.00  0.00
  WS02004403WS02004404    1.00   0.00  0.02  0.00  0.98  0.00  0.00  0.00  0.02  0.00
  WS02004402WS02004403    1.00   0.02  0.00  0.00  0.98  0.00  0.00  0.00  0.00  0.00
  WS02004139WS02001211    1.00   0.00  0.00  0.00  0.99  0.00  0.01  0.00  0.00  0.00
  WS02004138WS02004139    1.00   0.00  0.00  0.00  0.99  0.01  0.00  0.00  1.00  0.00
  WS02003067WS02003066    1.00   0.06  0.00  0.00  0.94  0.00  0.00  0.00  0.00  0.00
  WS02001213WS02003059    1.00   0.00  0.00  0.00  0.99  0.00  0.00  0.00  0.00  0.00
  WS02001212WS02001213    1.00   0.00  0.00  0.00  0.88  0.00  0.12  0.00  0.00  0.00
  WS02001211WS02001212    1.00   0.00  0.00  0.00  1.00  0.00  0.00  0.00  0.00  0.00
  WS02003072WS02003073    1.00   0.00  0.00  0.00  0.00  0.00  0.00  1.00  0.00  0.00
  WS02003069WS02003072    1.00   0.00  0.00  0.00  0.99  0.01  0.00  0.00  0.22  0.00
  WS02003060WS02003069    1.00   0.00  0.00  0.00  0.99  0.01  0.00  0.00  0.08  0.00
  WS02003059WS02003060    1.00   0.00  0.00  0.00  0.99  0.01  0.00  0.00  0.01  0.00
  HS02004901HS02004770    1.00   0.03  0.00  0.00  0.97  0.00  0.00  0.00  0.00  0.00
  HS02004876HS02004881    1.00   0.02  0.00  0.00  0.84  0.15  0.00  0.00  0.00  0.00
  HS02004870HS02004876    1.00   0.01  0.00  0.00  0.99  0.00  0.00  0.00  0.95  0.00
  HS02004842HS02004848    1.00   0.00  0.03  0.00  0.97  0.00  0.00  0.00  0.57  0.00
  HS02004837HS02004842    1.00   0.00  0.00  0.00  0.99  0.01  0.00  0.00  0.11  0.00
  HS02004830HS02004837    1.00   0.00  0.00  0.00  1.00  0.00  0.00  0.00  0.99  0.00
  HS02004824HS02004830    1.00   0.00  0.00  0.00  1.00  0.00  0.00  0.00  0.03  0.00
  HS02004817HS02004824    1.00   0.00  0.00  0.00  1.00  0.00  0.00  0.00  0.94  0.00
  HS02004770HS02004777    1.00   0.00  0.03  0.00  0.97  0.00  0.00  0.00  0.03  0.00
  HS02004799HS02004480    1.00   0.00  0.02  0.00  0.96  0.00  0.02  0.00  0.00  0.00
  HS02004792HS02004799    1.00   0.00  0.00  0.00  0.99  0.01  0.00  0.00  0.98  0.00
  HS02004788HS02004792    1.00   0.00  0.00  0.00  0.99  0.01  0.00  0.00  0.98  0.00
  HS02004785HS02004788    1.00   0.00  0.00  0.00  1.00  0.00  0.00  0.00  0.00  0.00
  HS02004777HS02004785    1.00   0.00  0.00  0.00  1.00  0.00  0.00  0.00  0.13  0.00
  HS02004480HS02004478    1.00   0.03  0.00  0.00  0.61  0.00  0.00  0.36  0.00  0.00
  HS02004479HS02004480    1.00   0.02  0.00  0.00  0.98  0.00  0.00  0.00  0.12  0.00
  HS02004862HS02004870    1.00   0.00  0.00  0.00  1.00  0.00  0.00  0.00  0.04  0.00
  HS02004848HS02004852    1.00   0.03  0.00  0.00  0.97  0.00  0.00  0.00  0.78  0.00
  HS02004856HS02004862    1.00   0.00  0.04  0.00  0.96  0.00  0.00  0.00  0.82  0.00
  HS02004852HS02004856    1.00   0.03  0.00  0.00  0.96  0.00  0.00  0.00  0.77  0.00
  HS02004802HS02004478    1.00   0.03  0.00  0.00  0.96  0.00  0.00  0.00  0.03  0.00
  HS02004478WS02006287    1.00   0.04  0.00  0.00  0.67  0.29  0.00  0.00  0.62  0.00
  HS02004817HS02004807    1.00   0.00  0.03  0.00  0.97  0.00  0.00  0.00  0.01  0.00
  HS02004807HS02004802    1.00   0.03  0.00  0.00  0.96  0.00  0.00  0.00  0.00  0.00
  YS02001759YS02001757    1.00   0.00  0.00  0.00  1.00  0.00  0.00  0.00  0.16  0.00
  YS02001762YS02001759    1.00   0.00  0.00  0.00  1.00  0.00  0.00  0.00  0.03  0.00
  YS02001765YS02001762    1.00   0.00  0.00  0.00  1.00  0.00  0.00  0.00  0.14  0.00
  YS02001770YS02001767    1.00   0.00  0.00  0.00  1.00  0.00  0.00  0.00  0.00  0.00
  YS02001774YS02001770    1.00   0.00  0.03  0.00  0.97  0.00  0.00  0.00  0.03  0.00
  YS02001779YS02001774    1.00   0.00  0.00  0.00  1.00  0.00  0.00  0.00  0.18  0.00
  YS02001649YS02001757    1.00   0.00  0.00  0.00  1.00  0.00  0.00  0.00  0.16  0.00
  YS02001767YS02001765    1.00   0.00  0.00  0.00  1.00  0.00  0.00  0.00  0.00  0.00
  YS02006561YS02001783    1.00   0.04  0.00  0.00  0.59  0.36  0.00  0.00  0.51  0.00
  YS02001783YS02001784    1.00   0.00  0.04  0.00  0.96  0.00  0.00  0.00  0.00  0.00
  YS02001784YS02001785    1.00   0.00  0.00  0.00  1.00  0.00  0.00  0.00  0.17  0.00
  YS02001788YS02001790    1.00   0.00  0.00  0.00  0.65  0.35  0.00  0.00  0.44  0.00
  YS02001790YS02001791    1.00   0.00  0.00  0.00  0.63  0.37  0.00  0.00  0.29  0.00
  YS02001791YS02001793    1.00   0.00  0.00  0.00  0.64  0.36  0.00  0.00  0.02  0.00
  YS02001910YS02001907    1.00   0.00  0.00  0.00  0.98  0.00  0.00  0.02  0.12  0.00
  YS02001786YS02001788    1.00   0.00  0.00  0.00  0.64  0.36  0.00  0.00  0.00  0.00
  YS02001915YS02001910    1.00   0.00  0.00  0.00  0.99  0.01  0.00  0.00  0.16  0.00
  YS02001918YS02001915    1.00   0.00  0.01  0.00  0.99  0.00  0.00  0.00  0.52  0.00
  YS02001923YS02001920    1.00   0.00  0.00  0.00  1.00  0.00  0.00  0.00  0.74  0.00
  YS02001926YS02001923    1.00   0.00  0.02  0.00  0.32  0.00  0.65  0.00  0.00  0.00
  YS02001929YS02001926    1.00   0.00  0.03  0.00  0.97  0.00  0.00  0.00  0.66  0.00
  YS02001920YS02001918    1.00   0.00  0.01  0.00  0.99  0.00  0.00  0.00  0.00  0.00
  YS02001629YS02163301    1.00   0.04  0.00  0.00  0.96  0.00  0.00  0.00  0.00  0.00
  YS02001619YS02001622    1.00   0.03  0.00  0.00  0.97  0.00  0.00  0.00  0.00  0.00
  YS02001622YS02001625    1.00   0.03  0.00  0.00  0.97  0.00  0.00  0.00  0.05  0.00
  YS02001625YS02001629    1.00   0.03  0.01  0.00  0.95  0.00  0.01  0.00  0.00  0.00
  YS02163301YS02001633    1.00   0.00  0.04  0.00  0.96  0.00  0.00  0.00  0.00  0.00
  YS02163601YS02164001    1.00   0.00  0.03  0.00  0.97  0.00  0.00  0.00  0.00  0.00
  YS02164001YS02001641    1.00   0.01  0.02  0.00  0.97  0.00  0.00  0.00  0.06  0.00
  YS02001641YS02001644    1.00   0.00  0.01  0.00  0.99  0.00  0.00  0.00  0.00  0.00
  YS02001647YS02001649    1.00   0.00  0.04  0.00  0.96  0.00  0.00  0.00  0.01  0.00
  YS02006553YS02006556    1.00   0.01  0.00  0.00  0.99  0.00  0.00  0.00  0.03  0.00
  YS02006556YS02006558    1.00   0.00  0.00  0.00  1.00  0.00  0.00  0.00  0.00  0.00
  YSB6556YSB1171          1.00   0.02  0.01  0.00  0.97  0.00  0.00  0.00  0.00  0.00
  YS02001907YS02006553    1.00   0.00  0.01  0.00  0.98  0.00  0.00  0.00  0.00  0.00
  YS02006558YS02006561    1.00   0.04  0.00  0.00  0.34  0.61  0.00  0.00  0.42  0.00
  YS02001633YS02163601    1.00   0.00  0.01  0.00  0.99  0.00  0.00  0.00  0.15  0.00
  YS02001644YS02001647    1.00   0.00  0.04  0.00  0.96  0.00  0.00  0.00  0.00  0.00
  YS02001745YS02001748    1.00   0.00  0.00  0.00  0.94  0.00  0.00  0.06  0.01  0.00
  YS02001748YS02001751    1.00   0.00  0.00  0.00  0.98  0.02  0.00  0.00  0.14  0.00
  YS02001751YS02001754    1.00   0.00  0.00  0.00  0.95  0.00  0.00  0.05  0.01  0.00
  YS02001754YS02001757    1.00   0.00  0.00  0.00  0.99  0.01  0.00  0.00  0.18  0.00
  YS02001882YS02001884    1.00   0.04  0.00  0.00  0.96  0.00  0.00  0.00  0.00  0.00
  YS02001884YS02001887    1.00   0.02  0.01  0.00  0.97  0.00  0.00  0.00  0.00  0.00
  YS02001890YS02001895    1.00   0.00  0.04  0.00  0.96  0.00  0.00  0.00  0.00  0.00
  YS02001895YS02001898    1.00   0.04  0.00  0.00  0.96  0.00  0.00  0.00  0.00  0.00
  YS02001898YS02001901    1.00   0.04  0.00  0.00  0.96  0.00  0.00  0.00  0.01  0.00
  YS02001901YS02001904    1.00   0.04  0.00  0.00  0.96  0.00  0.00  0.00  0.00  0.00
  YS02001904YS02001907    1.00   0.00  0.04  0.00  0.96  0.00  0.00  0.00  0.00  0.00
  YS02001887YS02001890    1.00   0.00  0.00  0.00  0.98  0.00  0.01  0.00  0.00  0.00
  YS02001652YS02001649    1.00   0.00  0.00  0.00  1.00  0.00  0.00  0.00  0.16  0.00
  YS02001655YS02001652    1.00   0.00  0.00  0.00  0.95  0.00  0.00  0.05  0.01  0.00
  YS02001658YS02001655    1.00   0.00  0.04  0.00  0.95  0.02  0.00  0.00  0.02  0.00
  YS02001661YS02001658    1.00   0.04  0.00  0.00  0.94  0.03  0.00  0.00  0.00  0.00
  YS02001664YS02001661    1.00   0.03  0.00  0.00  0.94  0.03  0.00  0.00  0.11  0.00
  YSB1154YSB6556          1.00   0.03  0.00  0.00  0.97  0.00  0.00  0.00  0.02  0.00
  YSB1174YSB1171          1.00   0.02  0.01  0.00  0.97  0.00  0.00  0.00  0.00  0.00
  YSB1171HS02004479       1.00   0.02  0.00  0.00  0.98  0.00  0.00  0.00  0.11  0.00
  HS02004881HS02006253    1.00   0.02  0.00  0.00  0.86  0.01  0.00  0.10  0.71  0.00
  YS02001793JiankangQianchi    1.00   0.00  0.00  0.00  0.82  0.18  0.00  0.00  0.17  0.00
  YS02001757CaochengTiaoxuchi    1.00   0.00  0.05  0.00  0.89  0.05  0.00  0.00  0.00  0.00
  WSF200WS02003060        1.00   0.00  0.06  0.00  0.45  0.49  0.00  0.00  0.10  0.00
  1                       1.00   0.00  0.00  0.00  0.00  1.00  0.00  0.00  0.55  0.00
  2                       1.00   0.66  0.00  0.00  0.00  0.34  0.00  0.00  0.03  0.00
  3                       1.00   0.08  0.00  0.00  0.00  0.92  0.00  0.00  0.04  0.00
  4                       1.00   1.00  0.00  0.00  0.00  0.00  0.00  0.00  0.00  0.00
  
  
  *************************
  Conduit Surcharge Summary
  *************************
  
  ----------------------------------------------------------------------------
                                                           Hours        Hours 
                         --------- Hours Full --------   Above Full   Capacity
  Conduit                Both Ends  Upstream  Dnstream   Normal Flow   Limited
  ----------------------------------------------------------------------------
  WS02006229WS02006228        2.00      2.08      2.00      5.51         2.00
  WS02006256WS02006235        6.27      6.27      7.83      3.90         0.01
  WS02006252WS02006251        0.18      0.18      0.51      0.43         0.01
  WS02006251WS02006249        0.01      0.01      0.01      0.21         0.01
  WS02006249WS02006248        0.01      0.01      0.01      4.95         0.01
  WS02006248WS02006247        0.01      0.01      0.22      0.01         0.01
  WS02006247WS02006245        0.36      0.39      0.36      5.55         0.34
  WS02006245WS02006243        0.43      0.43      0.57      0.01         0.01
  WS02006243WS02006242        0.61      0.61      1.66      0.01         0.01
  WS02006242WS02006240        1.36      1.36      1.77      0.55         0.01
  WS02006240WS02006239        1.46      1.46      1.60      0.04         0.01
  WS02006239WS02006238        1.71      1.71      1.74      0.05         0.01
  WS02006238WS02006235        1.72      1.72      1.90      0.01         0.01
  WS02006235WS02006234        1.41      1.41      1.71      6.26         0.04
  WS02006234WS02006232        1.65      1.65      1.97      0.01         0.01
  WS02006232WS02006231        1.30      1.30      1.97      0.01         0.01
  WS02006231WS02006230        0.79      0.79      1.33      6.21         0.01
  WS02006230WS02006229        2.47      5.45      2.47      6.31         2.41
  WS02006228WS02006109        2.02      2.30      2.02      5.63         2.02
  WS02006116WS02004401        0.54      0.54      0.54      0.49         0.48
  WS02006115WS02006116        0.40      0.40      0.41      0.26         0.25
  WS02006112WS02006115        0.36      0.36      1.59      0.01         0.01
  WS02006111WS02006112        0.01      0.01      5.53      0.01         0.01
  WS02006110WS02006113        0.01      0.01      2.21      0.01         0.01
  WS02006109WS02006110        1.43      1.43      2.30      1.44         0.01
  WS02004411WS02004412        0.01      0.01      0.01      0.52         0.01
  WS02004401WS02004402        0.54      0.54      0.58      0.01         0.02
  WS02004410WS02004411        0.01      0.01      0.01      0.47         0.01
  WS02004409WS02004410        0.01      0.01      0.01      0.30         0.01
  WS02004406WS02004407        0.01      0.01      0.71      0.01         0.01
  WS02004405WS02004406        0.71      0.76      0.71      1.50         0.71
  WS02004404WS02004405        0.76      0.84      0.76      6.24         0.76
  WS02004403WS02004404        0.59      0.59      0.84      0.01         0.01
  WS02004402WS02004403        0.58      0.58      0.59      0.53         0.52
  WS02003072WS02003073        0.01      0.01      0.01      4.55         0.01
  HS02004876HS02004881        0.01      0.01      0.01      0.49         0.01
  HS02004785HS02004788        0.01      0.01      0.01      0.35         0.01
  HS02004480HS02004478        0.01      0.01      0.01      0.79         0.01
  YS02001759YS02001757        6.09      6.09      6.12      0.01         0.01
  YS02001762YS02001759        6.08      6.08      6.09      0.01         0.01
  YS02001765YS02001762        6.08      6.08      6.08      0.01         0.01
  YS02001770YS02001767        6.07      6.07      6.07      0.43         0.76
  YS02001774YS02001770        6.07      6.07      6.08      0.01         0.01
  YS02001779YS02001774        6.04      6.04      6.08      0.01         0.01
  YS02001649YS02001757        6.08      6.08      6.12      0.01         0.01
  YS02001767YS02001765        6.07      6.07      6.08      0.01         0.01
  YS02006561YS02001783        1.59      1.59      2.13      0.01         0.01
  YS02001783YS02001784        2.12      2.13      2.17      2.03         1.92
  YS02001784YS02001785        2.06      2.17      2.06      2.74         2.06
  YS02001788YS02001790        2.02      2.02      3.45      0.01         0.01
  YS02001790YS02001791        3.45      3.45      3.58      1.53         1.46
  YS02001791YS02001793        3.58      3.58      3.83      0.01         0.01
  YS02001910YS02001907        1.94      1.94      2.26      0.01         0.01
  YS02001786YS02001788        2.02      2.07      2.02      2.41         2.02
  YS02001915YS02001910        1.74      1.74      1.94      0.01         0.01
  YS02001918YS02001915        1.50      1.50      1.74      0.01         0.01
  YS02001923YS02001920        1.34      1.34      1.55      0.01         0.01
  YS02001920YS02001918        1.51      1.51      1.55      0.01         0.01
  YS02001629YS02163301        6.06      6.06      6.07      0.01         0.01
  YS02001619YS02001622        6.02      6.02      6.03      0.01         0.01
  YS02001622YS02001625        6.03      6.03      6.05      0.01         0.01
  YS02001625YS02001629        6.02      6.02      6.05      0.01         0.01
  YS02163301YS02001633        6.07      6.07      6.08      0.01         0.01
  YS02163601YS02164001        6.08      6.08      6.09      0.01         0.01
  YS02164001YS02001641        6.08      6.08      6.08      0.01         0.02
  YS02001641YS02001644        6.08      6.08      6.08      2.21         2.19
  YS02001647YS02001649        6.05      6.05      6.08      0.01         0.01
  YS02006553YS02006556        2.11      2.11      2.32      0.01         0.01
  YS02006556YS02006558        2.18      2.18      2.38      0.01         0.01
  YSB6556YSB1171              0.01      0.01      0.14      0.01         0.01
  YS02001907YS02006553        2.75      2.75      2.95      0.01         0.01
  YS02006558YS02006561        1.78      2.09      1.78      2.63         1.78
  YS02001633YS02163601        6.08      6.08      6.09      0.01         0.01
  YS02001644YS02001647        6.05      6.05      6.08      0.01         0.01
  YS02001745YS02001748        0.01      0.01      5.99      0.01         0.01
  YS02001748YS02001751        6.00      6.00      6.02      0.01         0.01
  YS02001751YS02001754        6.02      6.02      6.05      0.01         0.01
  YS02001754YS02001757        6.05      6.05      6.12      0.01         0.01
  YS02001882YS02001884        1.76      1.76      1.79      0.01         0.01
  YS02001884YS02001887        1.84      1.84      1.87      0.01         0.01
  YS02001890YS02001895        1.73      1.73      1.96      0.01         0.01
  YS02001895YS02001898        1.71      1.71      1.73      0.01         0.01
  YS02001898YS02001901        1.74      1.74      1.83      0.01         0.01
  YS02001901YS02001904        1.81      1.81      1.83      0.01         0.01
  YS02001904YS02001907        1.81      1.81      2.35      0.01         0.01
  YS02001887YS02001890        1.90      1.90      1.92      0.20         0.01
  YS02001652YS02001649        6.06      6.06      6.08      0.01         0.01
  YS02001655YS02001652        6.02      6.02      6.05      0.01         0.01
  YS02001658YS02001655        5.99      5.99      6.02      0.01         0.01
  YS02001661YS02001658        0.25      0.25      5.99      0.01         0.01
  YS02001664YS02001661        0.01      0.01      1.82      0.01         0.01
  YS02001793JiankangQianchi        3.76      3.76      4.75      0.01         0.01
  YS02001757CaochengTiaoxuchi        5.60      5.60      6.12      0.01         0.01
  3                           0.01      0.01      0.01      0.01         0.01
  
  
  ***************
  Pumping Summary
  ***************
  
  ---------------------------------------------------------------------------------------------------------
                                                  Min       Avg       Max     Total     Power    % Time Off
                        Percent   Number of      Flow      Flow      Flow    Volume     Usage    Pump Curve
  Pump                 Utilized   Start-Ups       LPS       LPS       LPS  10^6 ltr     Kw-hr    Low   High
  ---------------------------------------------------------------------------------------------------------
  CC-Pump-1               49.49           3      0.00    155.96    200.00     2.102      2.09    0.0    7.8
  CC-Pump-2               51.06           6      0.00    147.92    200.00     2.160      1.84    0.0    2.3
  JK-Pump-1               95.74           3      0.00    242.82    300.00     5.245     35.64    0.0    0.0
  JK-Pump-2               63.83           4      0.00    188.40    300.00     2.357     21.12    0.0    0.0
  XR-Pump-1               34.04           3      0.00     52.02     95.00     0.513      3.28    0.0    0.0
  XR-Pump-2               95.73           7      0.00     78.04     95.00     2.109     15.43    0.0    0.0
  XR-Pump-3               70.21           5      0.00     71.80     95.00     1.454     13.19    0.0    0.0
  XR-Pump-4               76.59           3      0.00     72.39     95.00     1.596     13.31    0.0    0.0
  

  Analysis begun on:  Thu Dec 23 14:51:41 2021
  Analysis ended on:  Thu Dec 23 14:51:46 2021
  Total elapsed time: 00:00:05