
  EPA STORM WATER MANAGEMENT MODEL - VERSION 5.1 (Build 5.3.0.dev0)
  --------------------------------------------------------------

  WARNING 04: minimum elevation drop used for Conduit WS02004404WS02004405
  WARNING 03: negative offset ignored for Link YS02001904YS02001907
  
  *********************************************************
  NOTE: The summary statistics displayed in this report are
  based on results found at every computational time step,  
  not just on results from each reporting time step.
  *********************************************************
  
  ****************
  Analysis Options
  ****************
  Flow Units ............... LPS
  Process Models:
    Rainfall/Runoff ........ YES
    RDII ................... NO
    Snowmelt ............... NO
    Groundwater ............ NO
    Flow Routing ........... YES
    Ponding Allowed ........ NO
    Water Quality .......... NO
  Infiltration Method ...... HORTON
  Flow Routing Method ...... DYNWAVE
  Surcharge Method ......... EXTRAN
  Starting Date ............ 08/28/2015 08:00:00
  Ending Date .............. 08/28/2015 15:50:00
  Antecedent Dry Days ...... 8.0
  Report Time Step ......... 00:01:00
  Wet Time Step ............ 00:01:00
  Dry Time Step ............ 00:01:00
  Routing Time Step ........ 5.00 sec
  Variable Time Step ....... YES
  Maximum Trials ........... 8
  Number of Threads ........ 4
  Head Tolerance ........... 0.001500 m
  
  
  **************************        Volume         Depth
  Runoff Quantity Continuity     hectare-m            mm
  **************************     ---------       -------
  Total Precipitation ......         5.493        12.027
  Evaporation Loss .........         0.000         0.000
  Infiltration Loss ........         1.412         3.091
  Surface Runoff ...........         3.074         6.729
  Final Storage ............         1.009         2.209
  Continuity Error (%) .....        -0.014
  
  
  **************************        Volume        Volume
  Flow Routing Continuity        hectare-m      10^6 ltr
  **************************     ---------     ---------
  Dry Weather Inflow .......         0.616         6.165
  Wet Weather Inflow .......         3.072        30.724
  Groundwater Inflow .......         0.000         0.000
  RDII Inflow ..............         0.000         0.000
  External Inflow ..........         0.102         1.024
  External Outflow .........         2.193        21.935
  Flooding Loss ............         1.166        11.663
  Evaporation Loss .........         0.000         0.000
  Exfiltration Loss ........         0.000         0.000
  Initial Stored Volume ....         0.076         0.761
  Final Stored Volume ......         0.608         6.078
  Continuity Error (%) .....        -2.594
  
  
  *************************
  Highest Continuity Errors
  *************************
  Node HS02004842 (16.38%)
  Node JK-storage (-10.60%)
  Node YS02001884 (10.42%)
  Node YS02001774 (3.91%)
  Node YSB1171 (3.16%)
  
  
  ***************************
  Time-Step Critical Elements
  ***************************
  Link 3 (48.46%)
  Link WS02006252WS02006251 (42.23%)
  Link WS02006238WS02006235 (3.46%)
  
  
  ********************************
  Highest Flow Instability Indexes
  ********************************
  Link YS02001619YS02001622 (39)
  Link YS02001629YS02163301 (37)
  Link YS02163301YS02001633 (37)
  Link YS02163601YS02164001 (37)
  Link YS02164001YS02001641 (34)
  
  
  *************************
  Routing Time Step Summary
  *************************
  Minimum Time Step           :     0.50 sec
  Average Time Step           :     0.75 sec
  Maximum Time Step           :     5.00 sec
  Percent in Steady State     :    -0.00
  Average Iterations per Step :     4.79
  Percent Not Converging      :    24.80
  
  
  ***************************
  Subcatchment Runoff Summary
  ***************************
  
  ------------------------------------------------------------------------------------------------------------------------------
                            Total      Total      Total      Total     Imperv       Perv      Total       Total     Peak  Runoff
                           Precip      Runon       Evap      Infil     Runoff     Runoff     Runoff      Runoff   Runoff   Coeff
  Subcatchment                 mm         mm         mm         mm         mm         mm         mm    10^6 ltr      LPS
  ------------------------------------------------------------------------------------------------------------------------------
  sub0                      12.03       0.00       0.00       0.84       9.92       0.00       9.92        0.01     2.03   0.825
  sub1                      12.03       0.00       0.00       1.32       9.45       0.00       9.45        0.06    13.40   0.786
  sub2                      12.03       0.00       0.00       4.45       6.67       0.00       6.67        0.06    12.40   0.555
  sub3                      12.03       0.00       0.00       4.45       6.63       0.00       6.63        0.15    27.80   0.552
  sub4                      12.03       0.00       0.00       1.32       9.30       0.00       9.30        0.19    33.44   0.773
  sub5                      12.03       0.00       0.00       0.84       9.87       0.00       9.87        0.11    23.84   0.821
  sub7                      12.03       0.00       0.00       1.08       9.69       0.00       9.69        0.03     7.67   0.806
  sub8                      12.03       0.00       0.00       1.08       9.68       0.00       9.68        0.06    14.05   0.805
  sub9                      12.03       0.00       0.00       1.08       9.68       0.00       9.68        0.05    10.50   0.805
  sub10                     12.03       0.00       0.00       0.96       9.77       0.00       9.77        0.11    23.44   0.813
  sub11                     12.03       0.00       0.00       0.96       9.79       0.00       9.79        0.11    26.14   0.814
  sub12                     12.03       0.00       0.00       1.56       9.28       0.00       9.28        0.08    19.99   0.771
  sub14                     12.03       0.00       0.00       1.08       9.68       0.00       9.68        0.09    20.64   0.805
  sub15                     12.03       0.00       0.00       3.61       7.44       0.00       7.44        0.13    28.31   0.619
  sub16                     12.03       0.00       0.00       3.97       7.14       0.00       7.14        0.07    18.12   0.594
  sub17                     12.03       0.00       0.00       3.85       7.24       0.00       7.24        0.06    14.90   0.602
  sub22                     12.03       0.00       0.00       5.17       6.07       0.00       6.07        0.38    88.71   0.504
  sub23                     12.03       0.00       0.00       4.45       6.71       0.00       6.71        0.32    74.74   0.558
  sub60                     12.03       0.00       0.00       1.44       7.74       0.00       7.74        2.35   221.95   0.644
  sub61                     12.03       0.00       0.00       2.04       7.85       0.00       7.85        2.42   262.11   0.653
  sub62                     12.03       0.00       0.00       0.96       8.54       0.00       8.54        2.63   273.68   0.710
  sub63                     12.03       0.00       0.00       3.49       6.87       0.00       6.87        2.08   239.63   0.571
  sub64                     12.03       0.00       0.00       1.80       7.43       0.00       7.43        2.26   211.47   0.618
  sub65                     12.03       0.00       0.00       1.56       7.55       0.00       7.55        2.32   215.23   0.628
  sub66                     12.03       0.00       0.00       3.49       6.37       0.00       6.37        1.95   191.04   0.530
  sub67                     12.03       0.00       0.00       0.96       9.00       0.00       9.00        2.78   332.67   0.749
  sub68                     12.03       0.00       0.00       1.68       8.26       0.00       8.26        2.54   285.76   0.687
  sub69                     12.03       0.00       0.00       1.80       8.55       0.00       8.55        2.00   265.64   0.711
  sub70                     12.03       8.73       0.00       6.95      11.44       0.11      11.55        2.64   261.84   0.556
  sub71                     12.03       0.00       0.00       0.96       8.33       0.00       8.33        1.97   195.24   0.692
  sub72                     12.03       0.00       0.00       0.84       6.67       0.00       6.67        1.36   105.11   0.555
  sub73                     12.03      11.24       0.00       7.83      12.57       0.08      12.65        2.97   255.46   0.544
  sub74                     12.03       0.00       0.00       9.02       2.55       0.00       2.55        1.02   143.98   0.212
  
  
  ******************
  Node Depth Summary
  ******************
  
  ---------------------------------------------------------------------------------
                                 Average  Maximum  Maximum  Time of Max    Reported
                                   Depth    Depth      HGL   Occurrence   Max Depth
  Node                 Type       Meters   Meters   Meters  days hr:min      Meters
  ---------------------------------------------------------------------------------
  WS02001211           JUNCTION     0.63     0.76     5.60     0  06:10        0.76
  WS02001212           JUNCTION     0.37     0.47     5.53     0  06:11        0.47
  WS02001213           JUNCTION     0.61     0.71     5.47     0  02:23        0.71
  WS02003069           JUNCTION     0.45     0.56     5.14     0  02:23        0.56
  WS02003072           JUNCTION     0.52     0.62     4.99     0  02:24        0.62
  WS02003073           JUNCTION     0.31     0.38     4.44     0  02:24        0.38
  WS02003060           JUNCTION     0.40     0.49     5.43     0  02:22        0.49
  WS02003066           JUNCTION     0.25     0.33     5.88     0  01:52        0.33
  WS02003059           JUNCTION     0.68     0.77     5.46     0  02:23        0.77
  WS02003067           JUNCTION     0.61     0.74     6.06     0  01:50        0.74
  WS02004401           JUNCTION     0.74     0.98     6.98     0  01:48        0.98
  WS02004402           JUNCTION     0.76     1.00     6.96     0  01:48        1.00
  WS02004403           JUNCTION     0.78     1.00     6.93     0  01:48        1.00
  WS02004404           JUNCTION     0.86     1.06     6.91     0  01:48        1.06
  WS02004406           JUNCTION     0.86     1.03     6.86     0  01:48        1.03
  WS02004409           JUNCTION     0.55     0.75     6.52     0  01:51        0.75
  WS02004410           JUNCTION     0.57     0.76     6.48     0  01:51        0.76
  WS02004411           JUNCTION     0.58     0.76     6.44     0  01:51        0.76
  WS02004412           JUNCTION     0.59     0.76     6.40     0  01:51        0.76
  WS02004413           JUNCTION     0.75     0.92     6.39     0  01:50        0.92
  WS02004405           JUNCTION     0.85     1.05     6.90     0  01:48        1.05
  WS02006109           JUNCTION     0.83     1.15     7.77     0  01:39        1.10
  WS02006110           JUNCTION     0.81     1.07     7.66     0  01:39        1.02
  WS02006111           JUNCTION     0.24     0.37     7.07     0  01:46        0.36
  WS02006112           JUNCTION     0.91     1.21     7.09     0  01:47        1.20
  WS02006113           JUNCTION     0.38     0.51     7.41     0  01:45        0.51
  WS02006115           JUNCTION     0.63     0.89     7.03     0  01:48        0.89
  WS02006116           JUNCTION     0.71     0.97     7.01     0  01:48        0.97
  WS02006230           JUNCTION     0.83     1.47     8.22     0  01:39        1.18
  WS02006231           JUNCTION     0.56     1.05     8.17     0  01:39        0.84
  WS02006232           JUNCTION     0.70     1.13     8.16     0  01:39        0.95
  WS02006234           JUNCTION     0.63     1.13     8.29     0  01:39        0.88
  WS02006235           JUNCTION     0.66     1.17     8.33     0  01:39        0.90
  WS02006238           JUNCTION     0.69     1.20     8.35     0  01:39        0.92
  WS02006240           JUNCTION     0.59     1.42     8.71     0  01:39        0.82
  WS02006242           JUNCTION     0.65     1.55     8.82     0  01:39        0.88
  WS02006243           JUNCTION     0.53     1.48     8.90     0  01:39        0.76
  WS02006245           JUNCTION     0.51     1.10     8.59     0  01:39        0.76
  WS02006247           JUNCTION     0.52     1.03     8.53     0  01:39        0.77
  WS02006248           JUNCTION     0.46     0.71     8.30     0  01:39        0.70
  WS02006249           JUNCTION     0.48     0.67     8.26     0  01:41        0.65
  WS02006239           JUNCTION     0.65     1.29     8.49     0  01:39        0.88
  WS02006251           JUNCTION     0.48     0.74     8.41     0  01:40        0.72
  WS02006252           JUNCTION     0.42     0.59     8.84     0  01:39        0.59
  WS02006253           JUNCTION     0.51     0.76     8.41     0  01:40        0.74
  WS02006256           JUNCTION     1.10     2.35     9.28     0  00:00        1.22
  WS02004138           JUNCTION     0.14     0.19     7.44     0  00:30        0.19
  WS02004407           JUNCTION     0.25     0.33     6.64     0  01:49        0.33
  WS02006228           JUNCTION     0.84     1.23     7.88     0  01:39        1.17
  WS02006229           JUNCTION     0.82     1.25     7.94     0  01:39        1.19
  WS02006280           JUNCTION     0.07     0.19     8.46     0  01:42        0.19
  WS02006284           JUNCTION     0.37     0.54     8.94     0  01:42        0.54
  WS02006287           JUNCTION     0.11     0.28     9.23     0  01:42        0.28
  WSF200               JUNCTION     0.25     0.34     5.58     0  01:55        0.34
  HS02004901           JUNCTION     0.13     0.28    10.10     0  01:39        0.28
  HS02004881           JUNCTION     0.01     0.03     9.06     0  01:43        0.03
  HS02004876           JUNCTION     0.05     0.12     9.15     0  01:43        0.12
  HS02004870           JUNCTION     0.02     0.06     9.35     0  01:43        0.06
  HS02004862           JUNCTION     0.02     0.07     9.45     0  01:44        0.07
  HS02004856           JUNCTION     0.08     0.12     9.55     0  01:44        0.12
  HS02004852           JUNCTION     0.01     0.04     9.56     0  01:52        0.04
  HS02004848           JUNCTION     0.01     0.04     9.64     0  01:51        0.04
  HS02004842           JUNCTION     0.33     0.37     9.64     0  01:51        0.37
  HS02004837           JUNCTION     0.03     0.06     9.64     0  01:51        0.06
  HS02004830           JUNCTION     0.04     0.08     9.55     0  01:45        0.08
  HS02004824           JUNCTION     0.03     0.06     9.46     0  01:54        0.06
  HS02004817           JUNCTION     0.45     0.59     9.43     0  01:43        0.59
  HS02004807           JUNCTION     0.13     0.26     9.43     0  01:43        0.26
  HS02004802           JUNCTION     0.17     0.30     9.42     0  01:43        0.29
  HS02004799           JUNCTION     0.13     0.33     9.54     0  01:40        0.33
  HS02004792           JUNCTION     0.04     0.14     9.66     0  01:40        0.14
  HS02004788           JUNCTION     0.03     0.10    10.00     0  01:40        0.10
  HS02004785           JUNCTION     0.05     0.17    10.07     0  01:40        0.17
  HS02004777           JUNCTION     0.15     0.30    10.10     0  01:39        0.30
  HS02004770           JUNCTION     0.12     0.27    10.10     0  01:39        0.27
  HS02004480           JUNCTION     0.09     0.27     9.51     0  01:41        0.27
  HS02004479           JUNCTION     0.12     0.30     9.51     0  01:40        0.30
  HS02004478           JUNCTION     0.07     0.18     9.41     0  01:42        0.18
  YS02001745           JUNCTION     0.71     0.87     8.38     0  02:51        0.87
  YS02001748           JUNCTION     1.12     1.99     9.07     0  02:09        1.31
  YS02001751           JUNCTION     1.31     1.92     8.80     0  02:09        1.52
  YS02001754           JUNCTION     1.57     1.94     8.54     0  02:14        1.80
  YS02001762           JUNCTION     1.77     2.03     8.43     0  02:38        2.02
  YS02001765           JUNCTION     1.72     1.98     8.43     0  03:02        1.97
  YS02001767           JUNCTION     1.69     1.93     8.42     0  02:43        1.92
  YS02001770           JUNCTION     1.68     1.93     8.43     0  02:04        1.90
  YS02001774           JUNCTION     1.75     2.00     8.42     0  02:04        1.96
  YS02001779           JUNCTION     1.50     1.68     8.37     0  02:04        1.68
  YS02001882           JUNCTION     0.53     1.37     8.09     0  02:30        1.36
  YS02001884           JUNCTION     0.62     1.47     8.09     0  02:31        1.46
  YS02001759           JUNCTION     1.81     2.07     8.43     0  02:38        2.06
  YS02001887           JUNCTION     0.70     1.54     8.08     0  02:30        1.54
  YS02001890           JUNCTION     0.73     1.57     8.08     0  02:32        1.57
  YS02001898           JUNCTION     0.50     1.33     8.07     0  02:30        1.32
  YS02001901           JUNCTION     0.62     1.46     8.06     0  02:29        1.44
  YS02001904           JUNCTION     0.60     1.43     8.06     0  02:30        1.42
  YS02001907           JUNCTION     0.93     1.77     8.06     0  02:30        1.76
  YS02001910           JUNCTION     0.72     1.56     8.06     0  02:31        1.54
  YS02001915           JUNCTION     0.51     1.35     8.07     0  02:31        1.34
  YS02001918           JUNCTION     0.26     0.99     8.06     0  02:30        0.99
  YS02001619           JUNCTION     1.28     1.61     8.54     0  02:03        1.46
  YS02001629           JUNCTION     1.64     1.85     8.40     0  02:05        1.84
  YS02001641           JUNCTION     1.74     1.97     8.40     0  02:11        1.93
  YS02001644           JUNCTION     1.74     1.92     8.35     0  02:04        1.92
  YS02001652           JUNCTION     1.58     2.16     8.76     0  02:33        2.07
  YS02001655           JUNCTION     1.34     2.20     9.05     0  01:58        2.04
  YS02001920           JUNCTION     0.36     1.05     8.06     0  02:28        1.05
  YS02001923           JUNCTION     0.19     0.80     8.06     0  02:31        0.80
  YS02001926           JUNCTION     0.24     0.62     8.06     0  02:30        0.61
  YS02001929           JUNCTION     0.12     0.37     8.06     0  02:29        0.36
  YS02001658           JUNCTION     1.07     2.30     9.44     0  02:05        1.94
  YS02001661           JUNCTION     0.83     2.46     9.86     0  02:32        1.84
  YS02001664           JUNCTION     0.35     0.57     8.49     0  02:25        0.56
  YS02001622           JUNCTION     1.30     1.62     8.52     0  02:04        1.49
  YS02001633           JUNCTION     1.73     2.00     8.45     0  02:11        1.93
  YS02001649           JUNCTION     1.78     2.05     8.44     0  02:04        2.05
  YS02001757           JUNCTION     1.90     2.17     8.43     0  02:53        2.16
  YS02001895           JUNCTION     0.49     1.33     8.08     0  02:30        1.32
  YS02001625           JUNCTION     1.59     1.78     8.38     0  02:04        1.78
  YS02163301           JUNCTION     1.67     1.93     8.45     0  02:11        1.87
  YS02163601           JUNCTION     1.78     2.03     8.43     0  02:11        1.98
  YS02164001           JUNCTION     1.72     1.97     8.43     0  02:11        1.91
  YS02001647           JUNCTION     1.57     1.82     8.43     0  02:04        1.79
  YSB1154              JUNCTION     0.27     0.45     9.51     0  01:40        0.45
  YSB6556              JUNCTION     0.16     0.34     9.51     0  01:40        0.34
  YSB1174              JUNCTION     0.22     0.40     9.51     0  01:41        0.40
  YSB1171              JUNCTION     0.42     0.61     9.51     0  01:40        0.61
  YS02006553           JUNCTION     0.93     1.76     8.04     0  02:29        1.75
  YS02006561           JUNCTION     0.31     0.92     7.58     0  02:31        0.92
  YS02006556           JUNCTION     0.90     1.71     8.02     0  02:30        1.70
  YS02006558           JUNCTION     0.94     1.75     8.02     0  02:30        1.74
  YS02001783           JUNCTION     0.54     2.40     8.54     0  02:04        1.33
  YS02001784           JUNCTION     0.56     2.29     8.36     0  02:04        1.30
  YS02001786           JUNCTION     0.50     1.88     7.91     0  02:04        1.16
  YS02001788           JUNCTION     0.44     2.19     8.17     0  02:04        1.06
  YS02001790           JUNCTION     0.55     1.96     7.60     0  02:03        1.24
  YS02001791           JUNCTION     0.52     1.66     7.13     0  02:04        1.25
  YS02001793           JUNCTION     0.69     2.02     6.85     0  02:04        1.80
  WS02004139           JUNCTION     0.57     0.71     5.62     0  06:10        0.71
  WSC                  OUTFALL      0.31     0.38     1.05     0  02:25        0.38
  3                    OUTFALL      0.12     0.23     6.23     0  00:00        0.21
  4                    OUTFALL      0.04     0.16     7.16     0  01:41        0.15
  5                    OUTFALL      0.00     0.00     5.00     0  00:00        0.00
  JK-storage           STORAGE      2.42     5.80     6.60     0  02:04        5.80
  CC-storage           STORAGE      1.12     1.37     8.37     0  04:11        1.37
  XR-storage           STORAGE      7.41     7.72     5.72     0  01:53        7.72
  
  
  *******************
  Node Inflow Summary
  *******************
  
  -------------------------------------------------------------------------------------------------
                                  Maximum  Maximum                  Lateral       Total        Flow
                                  Lateral    Total  Time of Max      Inflow      Inflow     Balance
                                   Inflow   Inflow   Occurrence      Volume      Volume       Error
  Node                 Type           LPS      LPS  days hr:min    10^6 ltr    10^6 ltr     Percent
  -------------------------------------------------------------------------------------------------
  WS02001211           JUNCTION      7.35   381.65     0  00:30       0.207        6.08       0.492
  WS02001212           JUNCTION      0.00   377.75     0  00:31           0        6.05       0.245
  WS02001213           JUNCTION      0.00   376.84     0  00:31           0        6.04       0.384
  WS02003069           JUNCTION      0.32   877.19     0  02:23     0.00902        15.8       0.177
  WS02003072           JUNCTION      0.00   877.09     0  02:23           0        15.8       0.222
  WS02003073           JUNCTION      1.82   878.89     0  02:24      0.0514        15.8       0.251
  WS02003060           JUNCTION     16.53   876.86     0  02:22       0.466        15.8       0.167
  WS02003066           JUNCTION      0.00   663.65     0  01:51           0        9.37       0.047
  WS02003059           JUNCTION      0.00   375.38     0  00:32           0        6.03       0.568
  WS02003067           JUNCTION      0.00   663.30     0  01:50           0        9.38       0.098
  WS02004401           JUNCTION      0.00   670.08     0  01:48           0         9.6       0.202
  WS02004402           JUNCTION      0.00   668.03     0  01:48           0        9.58       0.193
  WS02004403           JUNCTION      0.00   666.70     0  01:48           0        9.56       0.178
  WS02004404           JUNCTION      0.16   666.52     0  01:49     0.00457        9.55       0.136
  WS02004406           JUNCTION      0.00   666.70     0  01:49           0        9.52       0.331
  WS02004409           JUNCTION      0.00   666.56     0  01:49           0        9.48       0.161
  WS02004410           JUNCTION      0.00   665.21     0  01:49           0        9.46       0.186
  WS02004411           JUNCTION      0.00   664.04     0  01:50           0        9.44       0.193
  WS02004412           JUNCTION      0.00   663.73     0  01:50           0        9.43       0.211
  WS02004413           JUNCTION      0.00   663.54     0  01:50           0        9.41       0.318
  WS02004405           JUNCTION      0.04   666.59     0  01:49     0.00107        9.54       0.206
  WS02006109           JUNCTION      1.23   675.47     0  01:39      0.0347        9.64       0.205
  WS02006110           JUNCTION      0.00   675.33     0  01:39           0        9.62       0.168
  WS02006111           JUNCTION      0.00   695.08     0  01:42           0         9.6       0.033
  WS02006112           JUNCTION     14.90   688.23     0  01:40      0.0621        9.66       0.263
  WS02006113           JUNCTION      0.00   678.29     0  01:39           0        9.61       0.072
  WS02006115           JUNCTION      0.00   687.88     0  01:40           0        9.63       0.181
  WS02006116           JUNCTION      0.00   672.18     0  01:48           0        9.61       0.179
  WS02006230           JUNCTION     10.28   400.15     0  04:58        0.29        7.78       0.155
  WS02006231           JUNCTION      0.00   390.52     0  04:41           0         7.5       0.062
  WS02006232           JUNCTION      0.00   390.62     0  04:41           0         7.5       0.159
  WS02006234           JUNCTION      0.00   391.81     0  04:40           0        7.51       0.059
  WS02006235           JUNCTION      0.00   393.34     0  04:22           0        7.53       0.088
  WS02006238           JUNCTION      0.00   335.62     0  07:30           0         5.5       0.072
  WS02006240           JUNCTION      0.00   334.90     0  07:30           0         5.5       0.081
  WS02006242           JUNCTION      0.00   349.84     0  01:38           0         5.5       0.102
  WS02006243           JUNCTION      0.00   373.00     0  01:37           0        5.48      -0.159
  WS02006245           JUNCTION      0.00   382.96     0  01:37           0        5.49       0.090
  WS02006247           JUNCTION      0.00   390.24     0  01:37           0        5.49       0.009
  WS02006248           JUNCTION      0.00   399.65     0  01:36           0        5.49      -0.018
  WS02006249           JUNCTION      0.00   489.54     0  01:41           0        6.38       0.031
  WS02006239           JUNCTION      0.00   335.49     0  07:30           0         5.5       0.087
  WS02006251           JUNCTION      0.08   496.87     0  01:40     0.00217        6.41       0.004
  WS02006252           JUNCTION      0.00   400.00     0  01:35           0        6.02       0.001
  WS02006253           JUNCTION      2.03    76.41     0  01:43     0.00803       0.385      -0.090
  WS02006256           JUNCTION      0.00   600.00     0  00:00           0        7.35       0.023
  WS02004138           JUNCTION      0.00   380.00     0  06:10           0         5.9       0.073
  WS02004407           JUNCTION      0.00   666.98     0  01:49           0        9.48       0.068
  WS02006228           JUNCTION      0.00   674.12     0  01:39           0        9.62       0.133
  WS02006229           JUNCTION      0.00   670.90     0  01:39           0        9.64       0.119
  WS02006280           JUNCTION      0.00   366.28     0  01:42           0        1.87       0.003
  WS02006284           JUNCTION      0.10   366.30     0  01:42      0.0027        1.87       0.025
  WS02006287           JUNCTION      0.00   366.22     0  01:42           0        1.87       0.038
  WSF200               JUNCTION      0.00   663.72     0  01:51           0        9.36       0.043
  HS02004901           JUNCTION     18.12    18.12     0  01:36      0.0747      0.0749       2.401
  HS02004881           JUNCTION      7.67    74.61     0  01:43      0.0326       0.352       0.120
  HS02004876           JUNCTION     13.40    67.33     0  01:43      0.0628        0.32       0.168
  HS02004870           JUNCTION     14.05    54.07     0  01:43      0.0618       0.257       0.041
  HS02004862           JUNCTION     12.60    40.55     0  01:44      0.0678       0.196       0.087
  HS02004856           JUNCTION     10.50    27.98     0  01:43      0.0465       0.129       1.123
  HS02004852           JUNCTION      0.00    17.93     0  01:51           0      0.0829       0.064
  HS02004848           JUNCTION     27.80    27.80     0  01:53       0.149       0.149       0.028
  HS02004842           JUNCTION      0.00    10.09     0  01:58           0      0.0794      19.594
  HS02004837           JUNCTION     29.79    38.22     0  01:51       0.287       0.353       0.230
  HS02004830           JUNCTION      0.15    38.36     0  01:51     0.00423       0.344       0.360
  HS02004824           JUNCTION     33.49    71.74     0  01:54       0.195       0.538       0.100
  HS02004817           JUNCTION      0.60    72.33     0  01:54      0.0169       0.554       3.103
  HS02004807           JUNCTION     26.14    95.63     0  01:52       0.114       0.651       0.672
  HS02004802           JUNCTION      0.00    95.92     0  01:53           0       0.649       0.613
  HS02004799           JUNCTION     20.64   230.90     0  01:40      0.0921        1.05       0.258
  HS02004792           JUNCTION     88.99   210.32     0  01:39       0.391       0.955       0.041
  HS02004788           JUNCTION     29.98   122.04     0  01:40       0.175       0.565       0.068
  HS02004785           JUNCTION      0.15    92.14     0  01:39     0.00423       0.391       0.125
  HS02004777           JUNCTION      0.03    92.19     0  01:38    0.000846       0.391       1.344
  HS02004770           JUNCTION     74.74    92.54     0  01:38        0.32       0.393       0.790
  HS02004480           JUNCTION      0.00   273.94     0  01:41           0        1.24       0.088
  HS02004479           JUNCTION      0.00    43.17     0  01:41           0       0.201       0.365
  HS02004478           JUNCTION      0.00   366.17     0  01:42           0        1.87       0.020
  YS02001745           JUNCTION    221.95   355.26     0  02:09        2.35        2.35       0.429
  YS02001748           JUNCTION      0.04   552.33     0  02:09     0.00127        2.34       0.971
  YS02001751           JUNCTION      0.01   412.35     0  02:00     0.00031        2.31       1.033
  YS02001754           JUNCTION      0.26   246.43     0  02:11     0.00733         2.3       1.069
  YS02001762           JUNCTION      0.00   277.71     0  02:13           0        1.98       1.072
  YS02001765           JUNCTION      0.00   276.69     0  02:14           0        1.98       1.238
  YS02001767           JUNCTION      0.54   276.01     0  02:27      0.0151           2       1.805
  YS02001770           JUNCTION    273.83   274.69     0  02:27        2.63        2.64       1.200
  YS02001774           JUNCTION      0.00   202.76     0  02:55           0       0.638       4.071
  YS02001779           JUNCTION      0.01   203.03     0  02:55    0.000141       0.605       2.590
  YS02001882           JUNCTION      0.00    26.83     0  02:06           0      0.0184      12.635
  YS02001884           JUNCTION      0.00    51.39     0  02:05           0      0.0547      11.626
  YS02001759           JUNCTION    262.15   539.72     0  02:13        2.42        4.36       0.526
  YS02001887           JUNCTION    333.12   348.63     0  02:10        2.79        2.82       0.286
  YS02001890           JUNCTION      0.00   348.09     0  02:11           0        2.77       0.318
  YS02001898           JUNCTION      0.00   349.14     0  02:13           0        2.76       0.092
  YS02001901           JUNCTION      0.00   347.31     0  02:13           0        2.76       0.239
  YS02001904           JUNCTION      0.00   345.85     0  02:13           0        2.76       0.216
  YS02001907           JUNCTION      0.00   619.38     0  02:33           0        6.14       0.386
  YS02001910           JUNCTION      0.00   320.21     0  03:05           0        3.39       0.332
  YS02001915           JUNCTION    195.26   315.27     0  03:03        1.97         3.4       0.165
  YS02001918           JUNCTION      0.00   134.59     0  02:52           0        1.43       0.123
  YS02001619           JUNCTION    191.04   191.04     0  02:29        1.95        1.95       0.621
  YS02001629           JUNCTION      0.00   209.99     0  02:01           0        1.79       1.605
  YS02001641           JUNCTION      0.00   405.34     0  02:07           0        4.01       0.527
  YS02001644           JUNCTION    211.51   909.18     0  02:55        2.26        7.87       0.330
  YS02001652           JUNCTION      0.00   303.25     0  02:05           0        2.03       1.129
  YS02001655           JUNCTION      0.15   462.29     0  01:58     0.00434        2.06       1.222
  YS02001920           JUNCTION      2.87   128.02     0  02:50      0.0809        1.44       0.195
  YS02001923           JUNCTION      0.04   116.11     0  02:36     0.00106        1.36       0.050
  YS02001926           JUNCTION      0.05   119.33     0  02:52     0.00147        1.36       0.225
  YS02001929           JUNCTION    105.11   105.11     0  02:59        1.36        1.36       0.036
  YS02001658           JUNCTION      0.00   655.14     0  02:05           0        2.09       1.089
  YS02001661           JUNCTION      0.00   635.93     0  02:25           0        2.85      -0.069
  YS02001664           JUNCTION    239.63   372.16     0  02:25        2.08        2.84       0.203
  YS02001622           JUNCTION      0.00   201.69     0  02:02           0        1.94       1.652
  YS02001633           JUNCTION    215.43   404.04     0  02:07        2.33        4.07       0.789
  YS02001649           JUNCTION      0.00   852.03     0  02:22           0        5.43       0.680
  YS02001757           JUNCTION      0.00  1584.83     0  02:22           0        10.3       0.886
  YS02001895           JUNCTION      0.00   349.65     0  02:10           0        2.77       0.181
  YS02001625           JUNCTION      0.00   209.95     0  02:01           0        1.91       2.086
  YS02163301           JUNCTION      0.00   214.94     0  02:04           0        1.78       1.360
  YS02163601           JUNCTION      0.11   404.40     0  02:07      0.0031        4.03       0.749
  YS02164001           JUNCTION      0.00   404.67     0  02:07           0        4.01       0.498
  YS02001647           JUNCTION      0.00   611.68     0  02:23           0        4.27       0.668
  YSB1154              JUNCTION     23.84    23.84     0  01:41       0.112       0.113       1.298
  YSB6556              JUNCTION      0.00    24.02     0  01:41           0       0.113       1.116
  YSB1174              JUNCTION     19.99    19.99     0  01:36       0.081      0.0815       1.597
  YSB1171              JUNCTION      0.00    43.60     0  01:40           0         0.2       3.266
  YS02006553           JUNCTION      0.00   619.29     0  02:34           0        6.13       0.248
  YS02006561           JUNCTION      0.00   898.62     0  02:30           0        8.64       0.008
  YS02006556           JUNCTION      0.00   619.33     0  02:33           0        6.14       0.180
  YS02006558           JUNCTION    286.64   898.83     0  02:30        2.56        8.67       0.059
  YS02001783           JUNCTION      0.00   898.76     0  02:30           0        8.64       0.025
  YS02001784           JUNCTION      1.06   899.82     0  02:31      0.0299        8.66       0.040
  YS02001786           JUNCTION      0.06   899.81     0  02:31     0.00159        8.66       0.037
  YS02001788           JUNCTION      0.07   899.85     0  02:31       0.002        8.66       0.022
  YS02001790           JUNCTION      0.15   900.06     0  02:31     0.00437        8.66       0.026
  YS02001791           JUNCTION      0.00   900.01     0  02:31           0        8.66       0.012
  YS02001793           JUNCTION      0.00   900.11     0  02:30           0        8.66       0.006
  WS02004139           JUNCTION      0.32   379.63     0  00:30     0.00905        5.91       0.566
  WSC                  OUTFALL       0.00   878.76     0  02:25           0        15.7       0.000
  3                    OUTFALL       0.00   597.65     0  00:00           0        5.31       0.000
  4                    OUTFALL       0.00   242.31     0  01:41           0       0.893       0.000
  5                    OUTFALL       0.00     0.00     0  00:00           0           0       0.000 ltr
  JK-storage           STORAGE       0.00   900.22     0  02:31           0        8.81      -9.581
  CC-storage           STORAGE       0.00  1584.99     0  02:22           0        9.43       0.232
  XR-storage           STORAGE     560.10   560.10     0  02:30        9.63        10.2      -0.003
  
  
  **********************
  Node Surcharge Summary
  **********************
  
  Surcharging occurs when water rises above the top of the highest conduit.
  ---------------------------------------------------------------------
                                               Max. Height   Min. Depth
                                   Hours       Above Crown    Below Rim
  Node                 Type      Surcharged         Meters       Meters
  ---------------------------------------------------------------------
  WS02004404           JUNCTION        0.57          0.061        2.719
  WS02004406           JUNCTION        0.35          0.033        2.417
  WS02004405           JUNCTION        0.50          0.048        2.752
  WS02006109           JUNCTION        3.30          0.329        1.491
  WS02006110           JUNCTION        0.96          0.161        1.689
  WS02006112           JUNCTION        1.51          0.206        1.474
  WS02006230           JUNCTION        0.56          0.392        1.178
  WS02006231           JUNCTION        0.64          0.339        1.191
  WS02006232           JUNCTION        3.60          0.426        1.054
  WS02006234           JUNCTION        1.13          0.409        0.831
  WS02006235           JUNCTION        2.77          0.459        0.831
  WS02006238           JUNCTION        3.13          0.483        0.947
  WS02006240           JUNCTION        1.09          0.710        0.680
  WS02006242           JUNCTION        2.33          0.820        0.000
  WS02006243           JUNCTION        0.30          0.770        0.000
  WS02006245           JUNCTION        0.03          0.391        0.459
  WS02006247           JUNCTION        0.04          0.317        0.443
  WS02006239           JUNCTION        1.43          0.545        0.745
  WS02006252           JUNCTION        3.17          0.193        0.907
  WS02006256           JUNCTION        0.01          1.050        0.000
  WS02006228           JUNCTION        3.16          0.403        1.797
  YS02001748           JUNCTION        5.54          0.913        0.277
  YS02001751           JUNCTION        5.77          0.919        0.281
  YS02001754           JUNCTION        5.97          0.886        0.264
  YS02001762           JUNCTION        6.14          1.030        0.120
  YS02001765           JUNCTION        6.13          0.976        0.124
  YS02001767           JUNCTION        6.12          0.931        0.099
  YS02001770           JUNCTION        6.11          0.904        0.016
  YS02001774           JUNCTION        6.14          0.995        0.055
  YS02001779           JUNCTION        5.95          0.680        0.000
  YS02001882           JUNCTION        0.89          0.370        0.460
  YS02001884           JUNCTION        0.94          0.409        0.461
  YS02001759           JUNCTION        6.15          1.070        0.140
  YS02001887           JUNCTION        1.05          0.495        0.455
  YS02001890           JUNCTION        1.09          0.524        0.236
  YS02001898           JUNCTION        0.81          0.302        0.438
  YS02001901           JUNCTION        1.01          0.456        0.414
  YS02001904           JUNCTION        0.98          0.426        0.424
  YS02001907           JUNCTION        1.68          0.756        0.194
  YS02001910           JUNCTION        1.14          0.555        0.545
  YS02001915           JUNCTION        0.87          0.350        0.650
  YS02001619           JUNCTION        5.76          0.610        0.000
  YS02001629           JUNCTION        5.77          0.470        0.000
  YS02001641           JUNCTION        6.13          0.966        0.134
  YS02001644           JUNCTION        6.13          0.920        0.000
  YS02001652           JUNCTION        6.03          1.130        0.000
  YS02001655           JUNCTION        5.79          1.200        0.000
  YS02001920           JUNCTION        0.23          0.050        1.090
  YS02001658           JUNCTION        5.60          1.300        0.000
  YS02001661           JUNCTION        0.22          1.390        0.000
  YS02001622           JUNCTION        5.80          0.620        0.000
  YS02001633           JUNCTION        6.12          0.979        0.081
  YS02001649           JUNCTION        6.14          1.050        0.000
  YS02001757           JUNCTION        6.19          1.169        0.041
  YS02001895           JUNCTION        0.84          0.332        0.418
  YS02001625           JUNCTION        6.09          0.780        0.000
  YS02163301           JUNCTION        6.11          0.929        0.101
  YS02163601           JUNCTION        6.15          1.032        0.048
  YS02164001           JUNCTION        6.12          0.970        0.130
  YS02001647           JUNCTION        6.06          0.820        0.080
  YS02006553           JUNCTION        1.72          0.760        0.430
  YS02006561           JUNCTION        0.57          0.124        1.026
  YS02006556           JUNCTION        1.42          0.669        0.681
  YS02006558           JUNCTION        1.37          0.649        0.751
  YS02001783           JUNCTION        1.37          1.600        0.000
  YS02001784           JUNCTION        1.40          1.490        0.000
  YS02001786           JUNCTION        1.37          1.079        0.351
  YS02001788           JUNCTION        1.37          1.395        0.085
  YS02001790           JUNCTION        2.08          1.157        0.000
  YS02001791           JUNCTION        2.11          0.862        1.058
  YS02001793           JUNCTION        2.18          1.019        1.581
  
  
  *********************
  Node Flooding Summary
  *********************
  
  Flooding refers to all water that overflows a node, whether it ponds or not.
  --------------------------------------------------------------------------
                                                             Total   Maximum
                                 Maximum   Time of Max       Flood    Ponded
                        Hours       Rate    Occurrence      Volume     Depth
  Node                 Flooded       LPS   days hr:min    10^6 ltr    Meters
  --------------------------------------------------------------------------
  WS02006242              0.01     75.80      0  01:39       0.000     0.000
  WS02006243              0.01     99.31      0  01:39       0.000     0.000
  WS02006256              0.01    406.11      0  00:00       0.001     0.000
  YS02001779              2.27    202.99      0  02:55       0.583     0.000
  YS02001619              0.01     38.16      0  02:06       0.000     0.000
  YS02001629              0.01     35.17      0  02:06       0.001     0.000
  YS02001644              3.99    909.11      0  02:55       5.185     0.000
  YS02001652              0.01     10.07      0  02:38       0.000     0.000
  YS02001655              0.01    216.78      0  02:04       0.001     0.000
  YS02001658              0.01    277.78      0  02:05       0.000     0.000
  YS02001661              0.01    132.91      0  02:32       0.000     0.000
  YS02001622              0.01     30.68      0  02:04       0.000     0.000
  YS02001649              0.09     37.68      0  02:30       0.005     0.000
  YS02001625              0.85     47.17      0  02:32       0.091     0.000
  YS02001783              0.01    101.53      0  02:04       0.000     0.000
  YS02001784              0.01     37.56      0  02:04       0.000     0.000
  YS02001790              0.01    144.58      0  02:03       0.000     0.000
  JK-storage              1.85    865.53      0  02:20       2.393     0.000
  XR-storage              4.87    365.12      0  02:40       3.403     0.000
  
  
  **********************
  Storage Volume Summary
  **********************
  
  --------------------------------------------------------------------------------------------------
                         Average     Avg  Evap Exfil       Maximum     Max    Time of Max    Maximum
                          Volume    Pcnt  Pcnt  Pcnt        Volume    Pcnt     Occurrence    Outflow
  Storage Unit           1000 m3    Full  Loss  Loss       1000 m3    Full    days hr:min        LPS
  --------------------------------------------------------------------------------------------------
  JK-storage               0.122      42     0     0         0.291     100       0  02:04     600.00
  CC-storage               3.118      20     0     0         3.819      24       0  04:11     400.00
  XR-storage               0.889      96     0     0         0.926     100       0  01:53     380.00
  
  
  ***********************
  Outfall Loading Summary
  ***********************
  
  -----------------------------------------------------------
                         Flow       Avg       Max       Total
                         Freq      Flow      Flow      Volume
  Outfall Node           Pcnt       LPS       LPS    10^6 ltr
  -----------------------------------------------------------
  WSC                   99.99    621.92    878.76      15.734
  3                     94.33    257.79    597.65       5.308
  4                     58.00     66.93    242.31       0.893
  5                      0.00      0.00      0.00       0.000
  -----------------------------------------------------------
  System                63.08    946.64   1392.36      21.935
  
  
  ********************
  Link Flow Summary
  ********************
  
  -----------------------------------------------------------------------------
                                 Maximum  Time of Max   Maximum    Max/    Max/
                                  |Flow|   Occurrence   |Veloc|    Full    Full
  Link                 Type          LPS  days hr:min     m/sec    Flow   Depth
  -----------------------------------------------------------------------------
  WS02003066WSF200     CONDUIT    663.72     0  01:51      2.97    0.11    0.26
  WS02006287WS02006284 CONDUIT    366.21     0  01:42      1.96    0.17    0.29
  WS02006284WS02006280 CONDUIT    366.28     0  01:42      2.20    0.15    0.26
  WS02006280WS02006229 CONDUIT    366.28     0  01:42      3.55    0.08    0.19
  WS02006229WS02006228 CONDUIT    674.12     0  01:39      1.34    2.23    1.00
  WS02006256WS02006235 CONDUIT    177.52     0  00:01      2.73    1.88    1.00
  WS02006253WS02006251 CONDUIT    116.49     0  01:41      0.58    0.35    1.00
  WS02006252WS02006251 CONDUIT    400.59     0  06:30      3.19    1.47    1.00
  WS02006251WS02006249 CONDUIT    489.54     0  01:41      1.31    1.41    0.98
  WS02006249WS02006248 CONDUIT    399.65     0  01:36      1.30    2.19    0.95
  WS02006248WS02006247 CONDUIT    390.24     0  01:37      1.29    0.85    1.00
  WS02006247WS02006245 CONDUIT    382.96     0  01:37      1.23    3.04    1.00
  WS02006245WS02006243 CONDUIT    373.00     0  01:37      1.32    1.10    1.00
  WS02006243WS02006242 CONDUIT    349.84     0  01:38      1.13    0.75    1.00
  WS02006242WS02006240 CONDUIT    334.90     0  07:30      0.96    1.33    1.00
  WS02006240WS02006239 CONDUIT    335.49     0  07:30      0.95    1.06    1.00
  WS02006239WS02006238 CONDUIT    335.62     0  07:30      0.90    1.07    1.00
  WS02006238WS02006235 CONDUIT    333.65     0  07:30      1.32    0.74    1.00
  WS02006235WS02006234 CONDUIT    391.81     0  04:40      1.04    4.13    1.00
  WS02006234WS02006232 CONDUIT    390.62     0  04:41      1.17    0.79    1.00
  WS02006232WS02006231 CONDUIT    390.52     0  04:41      1.06    0.82    1.00
  WS02006231WS02006230 CONDUIT    389.87     0  04:58      1.35    5.91    1.00
  WS02006230WS02006229 CONDUIT    400.15     0  05:00      1.04    8.91    1.00
  WS02006228WS02006109 CONDUIT    674.24     0  01:39      1.34    2.95    1.00
  WS02006116WS02004401 CONDUIT    670.08     0  01:48      0.91    0.92    0.97
  WS02006115WS02006116 CONDUIT    672.18     0  01:48      1.04    0.86    0.90
  WS02006113WS02006111 CONDUIT    695.08     0  01:42      2.65    0.83    0.54
  WS02006112WS02006115 CONDUIT    687.88     0  01:40      0.97    0.41    0.94
  WS02006111WS02006112 CONDUIT    673.68     0  01:40      1.81    0.32    0.72
  WS02006110WS02006113 CONDUIT    678.29     0  01:39      1.56    0.62    0.82
  WS02006109WS02006110 CONDUIT    675.33     0  01:39      1.34    1.30    1.00
  WS02004411WS02004412 CONDUIT    663.73     0  01:50      1.03    0.94    0.76
  WS02004401WS02004402 CONDUIT    668.03     0  01:48      0.85    0.80    0.99
  WS02004413WS02003067 CONDUIT    663.30     0  01:50      1.25    0.28    0.64
  WS02004412WS02004413 CONDUIT    663.54     0  01:50      0.94    0.44    0.84
  WS02004410WS02004411 CONDUIT    664.04     0  01:50      1.03    0.91    0.76
  WS02004409WS02004410 CONDUIT    665.21     0  01:49      1.10    0.86    0.76
  WS02004407WS02004409 CONDUIT    666.56     0  01:49      1.67    0.24    0.54
  WS02004406WS02004407 CONDUIT    666.98     0  01:49      1.20    0.30    0.67
  WS02004405WS02004406 CONDUIT    666.70     0  01:49      0.85    1.32    1.00
  WS02004404WS02004405 CONDUIT    666.55     0  01:49      0.85    6.53    1.00
  WS02004403WS02004404 CONDUIT    666.36     0  01:49      0.85    0.48    1.00
  WS02004402WS02004403 CONDUIT    666.70     0  01:48      0.85    0.96    1.00
  WS02004139WS02001211 CONDUIT    374.31     0  00:30      0.80    0.47    0.57
  WS02004138WS02004139 CONDUIT    379.31     0  00:30      3.34    0.08    0.42
  WS02003067WS02003066 CONDUIT    663.65     0  01:51      1.36    0.21    0.45
  WS02001213WS02003059 CONDUIT    375.38     0  00:32      0.80    0.62    0.73
  WS02001212WS02001213 CONDUIT    376.84     0  00:31      1.31    0.58    0.43
  WS02001211WS02001212 CONDUIT    377.75     0  00:31      0.77    0.29    0.62
  WS02003072WS02003073 CONDUIT    877.06     0  02:24      1.69    1.89    0.47
  WS02003069WS02003072 CONDUIT    877.09     0  02:23      1.59    0.42    0.49
  WS02003060WS02003069 CONDUIT    876.87     0  02:23      1.84    0.34    0.44
  WS02003059WS02003060 CONDUIT    373.06     0  00:32      0.93    0.24    0.63
  HS02004901HS02004770 CONDUIT     17.82     0  01:38      0.06    0.07    0.40
  HS02004876HS02004881 CONDUIT     67.33     0  01:43      0.89    0.72    0.11
  HS02004870HS02004876 CONDUIT     54.05     0  01:43      0.61    0.04    0.13
  HS02004842HS02004848 CONDUIT     10.09     0  01:58      0.05    0.01    0.30
  HS02004837HS02004842 CONDUIT     10.33     0  02:00      0.41    0.01    0.31
  HS02004830HS02004837 CONDUIT     38.21     0  01:51      0.54    0.04    0.10
  HS02004824HS02004830 CONDUIT     38.37     0  01:52      0.57    0.05    0.10
  HS02004817HS02004824 CONDUIT     71.73     0  01:54      0.22    0.03    0.46
  HS02004770HS02004777 CONDUIT     92.16     0  01:38      0.32    0.17    0.41
  HS02004799HS02004480 CONDUIT    230.85     0  01:40      0.78    0.29    0.42
  HS02004792HS02004799 CONDUIT    210.29     0  01:40      0.89    0.13    0.34
  HS02004788HS02004792 CONDUIT    122.00     0  01:40      1.02    0.08    0.17
  HS02004785HS02004788 CONDUIT     92.09     0  01:40      0.67    0.69    0.20
  HS02004777HS02004785 CONDUIT     91.99     0  01:39      0.39    0.11    0.34
  HS02004480HS02004478 CONDUIT    273.63     0  01:41      1.21    1.15    0.32
  HS02004479HS02004480 CONDUIT     43.48     0  01:42      0.30    0.04    0.41
  HS02004862HS02004870 CONDUIT     40.54     0  01:45      0.62    0.04    0.09
  HS02004848HS02004852 CONDUIT     17.93     0  01:51      0.42    0.02    0.06
  HS02004856HS02004862 CONDUIT     27.96     0  01:44      0.46    0.03    0.09
  HS02004852HS02004856 CONDUIT     17.92     0  01:52      0.22    0.02    0.12
  HS02004802HS02004478 CONDUIT     96.20     0  01:53      0.42    0.08    0.34
  HS02004478WS02006287 CONDUIT    366.22     0  01:42      1.67    0.10    0.24
  HS02004817HS02004807 CONDUIT     72.77     0  01:55      0.17    0.04    0.61
  HS02004807HS02004802 CONDUIT     95.92     0  01:53      0.36    0.18    0.39
  YS02001759YS02001757 CONDUIT    540.39     0  02:13      0.69    0.38    1.00
  YS02001762YS02001759 CONDUIT    279.37     0  02:11      0.36    0.32    1.00
  YS02001765YS02001762 CONDUIT    277.71     0  02:13      0.35    0.26    1.00
  YS02001770YS02001767 CONDUIT    275.48     0  02:27      0.42    1.09    1.00
  YS02001774YS02001770 CONDUIT    202.76     0  02:55      0.26    0.13    1.00
  YS02001779YS02001774 CONDUIT    203.02     0  02:55      0.26    0.10    1.00
  YS02001649YS02001757 CONDUIT    852.47     0  02:22      1.09    0.52    1.00
  YS02001767YS02001765 CONDUIT    276.69     0  02:14      0.38    0.35    1.00
  YS02006561YS02001783 CONDUIT    898.76     0  02:30      2.12    0.47    1.00
  YS02001783YS02001784 CONDUIT    898.76     0  02:31      1.79    1.24    1.00
  YS02001784YS02001785 CONDUIT    899.75     0  02:31      1.80    2.09    1.00
  YS02001788YS02001790 CONDUIT    899.91     0  02:31      2.33    0.66    1.00
  YS02001790YS02001791 CONDUIT    900.01     0  02:31      2.85    0.98    1.00
  YS02001791YS02001793 CONDUIT    900.11     0  02:30      5.78    0.39    1.00
  YS02001910YS02001907 CONDUIT    320.18     0  03:05      0.49    0.18    1.00
  YS02001786YS02001788 CONDUIT    899.78     0  02:31      2.23    1.73    1.00
  YS02001915YS02001910 CONDUIT    320.21     0  03:05      0.58    0.16    1.00
  YS02001918YS02001915 CONDUIT    144.12     0  03:07      0.44    0.08    1.00
  YS02001923YS02001920 CONDUIT    125.15     0  02:50      0.68    0.06    0.90
  YS02001926YS02001923 CONDUIT    116.07     0  02:36      0.78    0.17    0.60
  YS02001929YS02001926 CONDUIT    119.27     0  02:52      0.83    0.06    0.49
  YS02001920YS02001918 CONDUIT    134.59     0  02:52      0.67    0.13    1.00
  YS02001629YS02163301 CONDUIT    214.94     0  02:04      0.27    0.26    1.00
  YS02001619YS02001622 CONDUIT    201.69     0  02:02      0.73    0.30    1.00
  YS02001622YS02001625 CONDUIT    209.95     0  02:01      0.36    0.11    1.00
  YS02001625YS02001629 CONDUIT    209.99     0  02:01      0.30    0.10    1.00
  YS02163301YS02001633 CONDUIT    215.01     0  02:04      0.27    0.20    1.00
  YS02163601YS02164001 CONDUIT    404.67     0  02:07      0.52    0.36    1.00
  YS02164001YS02001641 CONDUIT    405.34     0  02:07      0.52    0.55    1.00
  YS02001641YS02001644 CONDUIT    405.23     0  02:07      0.52    1.31    1.00
  YS02001647YS02001649 CONDUIT    611.99     0  02:23      0.78    0.32    1.00
  YS02006553YS02006556 CONDUIT    619.33     0  02:33      0.79    0.53    1.00
  YS02006556YS02006558 CONDUIT    619.40     0  02:33      0.79    0.49    1.00
  YSB6556YSB1171       CONDUIT     24.43     0  01:43      0.09    0.03    0.68
  YS02001907YS02006553 CONDUIT    619.29     0  02:34      0.69    0.73    1.00
  YS02006558YS02006561 CONDUIT    898.62     0  02:30      3.23    1.99    1.00
  YS02001633YS02163601 CONDUIT    404.29     0  02:07      0.51    0.42    1.00
  YS02001644YS02001647 CONDUIT    611.68     0  02:23      0.78    0.36    1.00
  YS02001745YS02001748 CONDUIT    552.28     0  02:09      1.64    0.21    0.93
  YS02001748YS02001751 CONDUIT    412.34     0  02:00      1.22    0.21    1.00
  YS02001751YS02001754 CONDUIT    246.17     0  02:11      1.05    0.12    1.00
  YS02001754YS02001757 CONDUIT    242.91     0  02:11      0.33    0.10    1.00
  YS02001882YS02001884 CONDUIT     26.83     0  02:06      0.15    0.03    1.00
  YS02001884YS02001887 CONDUIT     51.39     0  02:05      0.11    0.07    1.00
  YS02001890YS02001895 CONDUIT    349.65     0  02:10      0.48    0.16    1.00
  YS02001895YS02001898 CONDUIT    349.14     0  02:13      0.61    0.61    1.00
  YS02001898YS02001901 CONDUIT    347.31     0  02:13      0.53    0.22    1.00
  YS02001901YS02001904 CONDUIT    345.85     0  02:13      0.48    0.54    1.00
  YS02001904YS02001907 CONDUIT    346.21     0  02:13      0.44    0.12    1.00
  YS02001887YS02001890 CONDUIT    348.09     0  02:11      0.44    0.60    1.00
  YS02001652YS02001649 CONDUIT    303.32     0  02:05      0.61    0.15    1.00
  YS02001655YS02001652 CONDUIT    303.25     0  02:05      1.11    0.15    1.00
  YS02001658YS02001655 CONDUIT    462.14     0  01:58      1.42    0.20    1.00
  YS02001661YS02001658 CONDUIT    655.14     0  02:05      1.73    0.26    1.00
  YS02001664YS02001661 CONDUIT    635.93     0  02:25      1.62    0.20    0.71
  YSB1154YSB6556       CONDUIT     24.02     0  01:41      0.16    0.04    0.57
  YSB1174YSB1171       CONDUIT     20.01     0  01:36      0.07    0.03    0.68
  YSB1171HS02004479    CONDUIT     43.17     0  01:41      0.54    0.03    0.54
  HS02004881HS02006253 CONDUIT     74.61     0  01:43      2.03    0.01    0.33
  YS02001793JiankangQianchi CONDUIT    900.22     0  02:31     12.79    0.07    1.00
  YS02001757CaochengTiaoxuchi CONDUIT   1584.99     0  02:22      2.56    0.70    1.00
  WSF200WS02003060     CONDUIT    662.85     0  01:51      2.22    0.15    0.35
  1                    CONDUIT    878.76     0  02:25      3.21    0.31    0.38
  2                    CONDUIT    242.31     0  01:41      6.13    0.58    0.55
  3                    CONDUIT    597.65     0  00:00     10.05    0.95    0.86
  4                    CONDUIT      0.00     0  00:00      0.00    0.00    0.00
  CC-Pump-1            PUMP       200.00     0  01:35              1.00
  CC-Pump-2            PUMP       200.00     0  01:35              1.00
  JK-Pump-1            PUMP       300.00     0  00:00              1.00
  JK-Pump-2            PUMP       300.00     0  00:00              1.00
  XR-Pump-1            PUMP        95.00     0  00:00              1.00
  XR-Pump-2            PUMP        95.00     0  00:00              1.00
  XR-Pump-3            PUMP        95.00     0  00:30              1.00
  XR-Pump-4            PUMP        95.00     0  00:00              1.00
  
  
  ***************************
  Flow Classification Summary
  ***************************
  
  -------------------------------------------------------------------------------------
                      Adjusted    ---------- Fraction of Time in Flow Class ---------- 
                       /Actual         Up    Down  Sub   Sup   Up    Down  Norm  Inlet 
  Conduit               Length    Dry  Dry   Dry   Crit  Crit  Crit  Crit  Ltd   Ctrl  
  -------------------------------------------------------------------------------------
  WS02003066WSF200        1.00   0.04  0.02  0.00  0.00  0.94  0.00  0.00  0.58  0.00
  WS02006287WS02006284    1.00   0.03  0.01  0.00  0.59  0.38  0.00  0.00  0.72  0.00
  WS02006284WS02006280    1.00   0.03  0.00  0.00  0.00  0.00  0.00  0.97  0.00  0.00
  WS02006280WS02006229    1.00   0.03  0.00  0.00  0.00  0.00  0.00  0.97  0.00  0.00
  WS02006229WS02006228    1.00   0.00  0.00  0.00  0.99  0.00  0.00  0.01  0.00  0.00
  WS02006256WS02006235    1.00   0.00  0.00  0.00  1.00  0.00  0.00  0.00  0.00  0.00
  WS02006253WS02006251    1.00   0.02  0.01  0.00  0.97  0.00  0.00  0.00  0.00  0.00
  WS02006252WS02006251    1.00   0.05  0.00  0.00  0.00  0.00  0.95  0.00  0.00  0.00
  WS02006251WS02006249    1.00   0.00  0.00  0.00  1.00  0.00  0.00  0.00  0.18  0.00
  WS02006249WS02006248    1.00   0.00  0.01  0.00  0.95  0.00  0.04  0.00  0.00  0.00
  WS02006248WS02006247    1.00   0.02  0.00  0.00  0.98  0.00  0.00  0.01  0.06  0.00
  WS02006247WS02006245    1.00   0.02  0.00  0.00  0.97  0.00  0.00  0.02  0.00  0.00
  WS02006245WS02006243    1.00   0.01  0.00  0.00  0.96  0.00  0.00  0.03  0.02  0.00
  WS02006243WS02006242    1.00   0.01  0.00  0.00  0.99  0.00  0.00  0.00  0.16  0.00
  WS02006242WS02006240    1.00   0.00  0.00  0.00  0.99  0.00  0.00  0.00  0.00  0.00
  WS02006240WS02006239    1.00   0.00  0.00  0.00  0.97  0.00  0.00  0.03  0.02  0.00
  WS02006239WS02006238    1.00   0.00  0.00  0.00  1.00  0.00  0.00  0.00  0.00  0.00
  WS02006238WS02006235    1.00   0.00  0.00  0.00  1.00  0.00  0.00  0.00  0.00  0.00
  WS02006235WS02006234    1.00   0.00  0.00  0.00  0.97  0.00  0.03  0.00  0.00  0.00
  WS02006234WS02006232    1.00   0.00  0.00  0.00  1.00  0.00  0.00  0.00  0.03  0.00
  WS02006232WS02006231    1.00   0.00  0.00  0.00  0.99  0.00  0.01  0.00  0.00  0.00
  WS02006231WS02006230    1.00   0.00  0.00  0.00  0.80  0.00  0.19  0.00  0.00  0.00
  WS02006230WS02006229    1.00   0.00  0.00  0.00  0.99  0.00  0.00  0.01  0.01  0.00
  WS02006228WS02006109    1.00   0.00  0.00  0.00  1.00  0.00  0.00  0.00  0.00  0.00
  WS02006116WS02004401    1.00   0.02  0.00  0.00  0.98  0.00  0.00  0.00  0.00  0.00
  WS02006115WS02006116    1.00   0.02  0.00  0.00  0.97  0.00  0.00  0.01  0.01  0.00
  WS02006113WS02006111    1.00   0.02  0.00  0.00  0.00  0.98  0.00  0.00  0.11  0.00
  WS02006112WS02006115    1.00   0.02  0.00  0.00  0.98  0.00  0.00  0.00  0.00  0.00
  WS02006111WS02006112    1.00   0.02  0.00  0.00  0.98  0.00  0.00  0.00  0.92  0.00
  WS02006110WS02006113    1.00   0.01  0.00  0.00  0.98  0.00  0.00  0.00  0.00  0.00
  WS02006109WS02006110    1.00   0.00  0.01  0.00  0.98  0.00  0.00  0.00  0.00  0.00
  WS02004411WS02004412    1.00   0.04  0.00  0.00  0.96  0.00  0.00  0.00  0.00  0.00
  WS02004401WS02004402    1.00   0.02  0.00  0.00  0.98  0.00  0.00  0.00  0.00  0.00
  WS02004413WS02003067    1.00   0.04  0.01  0.00  0.00  0.00  0.95  0.00  0.00  0.00
  WS02004412WS02004413    1.00   0.04  0.00  0.00  0.95  0.00  0.00  0.00  0.00  0.00
  WS02004410WS02004411    1.00   0.04  0.00  0.00  0.96  0.00  0.00  0.00  0.00  0.00
  WS02004409WS02004410    1.00   0.04  0.00  0.00  0.96  0.00  0.00  0.00  0.00  0.00
  WS02004407WS02004409    1.00   0.04  0.00  0.00  0.95  0.01  0.00  0.00  0.81  0.00
  WS02004406WS02004407    1.00   0.00  0.04  0.00  0.96  0.00  0.00  0.00  0.00  0.00
  WS02004405WS02004406    1.00   0.00  0.00  0.00  1.00  0.00  0.00  0.00  0.02  0.00
  WS02004404WS02004405    1.00   0.00  0.00  0.00  1.00  0.00  0.00  0.00  0.00  0.00
  WS02004403WS02004404    1.00   0.00  0.02  0.00  0.98  0.00  0.00  0.00  0.02  0.00
  WS02004402WS02004403    1.00   0.02  0.00  0.00  0.98  0.00  0.00  0.00  0.00  0.00
  WS02004139WS02001211    1.00   0.00  0.00  0.00  0.99  0.00  0.00  0.00  0.00  0.00
  WS02004138WS02004139    1.00   0.00  0.00  0.00  0.99  0.01  0.00  0.00  1.00  0.00
  WS02003067WS02003066    1.00   0.05  0.00  0.00  0.94  0.00  0.00  0.00  0.00  0.00
  WS02001213WS02003059    1.00   0.00  0.00  0.00  0.99  0.00  0.00  0.00  0.00  0.00
  WS02001212WS02001213    1.00   0.00  0.00  0.00  0.93  0.00  0.06  0.00  0.00  0.00
  WS02001211WS02001212    1.00   0.00  0.00  0.00  1.00  0.00  0.00  0.00  0.00  0.00
  WS02003072WS02003073    1.00   0.00  0.00  0.00  0.00  0.00  0.00  1.00  0.00  0.00
  WS02003069WS02003072    1.00   0.00  0.00  0.00  0.99  0.01  0.00  0.00  0.18  0.00
  WS02003060WS02003069    1.00   0.00  0.00  0.00  0.97  0.03  0.00  0.00  0.13  0.00
  WS02003059WS02003060    1.00   0.00  0.00  0.00  0.99  0.01  0.00  0.00  0.01  0.00
  HS02004901HS02004770    1.00   0.03  0.00  0.00  0.97  0.00  0.00  0.00  0.00  0.00
  HS02004876HS02004881    1.00   0.02  0.00  0.00  0.90  0.09  0.00  0.00  0.00  0.00
  HS02004870HS02004876    1.00   0.01  0.00  0.00  0.99  0.00  0.00  0.00  0.95  0.00
  HS02004842HS02004848    1.00   0.00  0.03  0.00  0.97  0.00  0.00  0.00  0.59  0.00
  HS02004837HS02004842    1.00   0.00  0.00  0.00  0.99  0.01  0.00  0.00  0.11  0.00
  HS02004830HS02004837    1.00   0.00  0.00  0.00  1.00  0.00  0.00  0.00  0.99  0.00
  HS02004824HS02004830    1.00   0.00  0.00  0.00  1.00  0.00  0.00  0.00  0.00  0.00
  HS02004817HS02004824    1.00   0.00  0.00  0.00  1.00  0.00  0.00  0.00  1.00  0.00
  HS02004770HS02004777    1.00   0.00  0.03  0.00  0.97  0.00  0.00  0.00  0.02  0.00
  HS02004799HS02004480    1.00   0.00  0.01  0.00  0.96  0.00  0.02  0.00  0.00  0.00
  HS02004792HS02004799    1.00   0.00  0.00  0.00  0.99  0.01  0.00  0.00  0.98  0.00
  HS02004788HS02004792    1.00   0.00  0.00  0.00  0.99  0.01  0.00  0.00  0.98  0.00
  HS02004785HS02004788    1.00   0.00  0.00  0.00  1.00  0.00  0.00  0.00  0.00  0.00
  HS02004777HS02004785    1.00   0.00  0.00  0.00  1.00  0.00  0.00  0.00  0.12  0.00
  HS02004480HS02004478    1.00   0.03  0.00  0.00  0.64  0.00  0.00  0.33  0.00  0.00
  HS02004479HS02004480    1.00   0.02  0.00  0.00  0.98  0.00  0.00  0.00  0.11  0.00
  HS02004862HS02004870    1.00   0.00  0.00  0.00  1.00  0.00  0.00  0.00  0.03  0.00
  HS02004848HS02004852    1.00   0.03  0.00  0.00  0.97  0.00  0.00  0.00  0.78  0.00
  HS02004856HS02004862    1.00   0.00  0.04  0.00  0.96  0.00  0.00  0.00  0.83  0.00
  HS02004852HS02004856    1.00   0.03  0.00  0.00  0.97  0.00  0.00  0.00  0.86  0.00
  HS02004802HS02004478    1.00   0.03  0.00  0.00  0.97  0.00  0.00  0.00  0.02  0.00
  HS02004478WS02006287    1.00   0.04  0.00  0.00  0.75  0.22  0.00  0.00  0.69  0.00
  HS02004817HS02004807    1.00   0.00  0.03  0.00  0.97  0.00  0.00  0.00  0.01  0.00
  HS02004807HS02004802    1.00   0.03  0.00  0.00  0.96  0.00  0.00  0.00  0.00  0.00
  YS02001759YS02001757    1.00   0.00  0.00  0.00  1.00  0.00  0.00  0.00  0.16  0.00
  YS02001762YS02001759    1.00   0.00  0.00  0.00  1.00  0.00  0.00  0.00  0.03  0.00
  YS02001765YS02001762    1.00   0.00  0.00  0.00  1.00  0.00  0.00  0.00  0.13  0.00
  YS02001770YS02001767    1.00   0.00  0.00  0.00  1.00  0.00  0.00  0.00  0.00  0.00
  YS02001774YS02001770    1.00   0.00  0.03  0.00  0.97  0.00  0.00  0.00  0.03  0.00
  YS02001779YS02001774    1.00   0.00  0.00  0.00  1.00  0.00  0.00  0.00  0.17  0.00
  YS02001649YS02001757    1.00   0.00  0.00  0.00  1.00  0.00  0.00  0.00  0.16  0.00
  YS02001767YS02001765    1.00   0.00  0.00  0.00  1.00  0.00  0.00  0.00  0.00  0.00
  YS02006561YS02001783    1.00   0.04  0.00  0.00  0.37  0.59  0.00  0.00  0.57  0.00
  YS02001783YS02001784    1.00   0.00  0.04  0.00  0.96  0.00  0.00  0.00  0.00  0.00
  YS02001784YS02001785    1.00   0.00  0.00  0.00  1.00  0.00  0.00  0.00  0.16  0.00
  YS02001788YS02001790    1.00   0.00  0.00  0.00  0.39  0.61  0.00  0.00  0.51  0.00
  YS02001790YS02001791    1.00   0.00  0.00  0.00  0.36  0.64  0.00  0.00  0.51  0.00
  YS02001791YS02001793    1.00   0.00  0.00  0.00  0.36  0.64  0.00  0.00  0.01  0.00
  YS02001910YS02001907    1.00   0.00  0.00  0.00  0.98  0.00  0.00  0.02  0.12  0.00
  YS02001786YS02001788    1.00   0.00  0.00  0.00  0.38  0.62  0.00  0.00  0.00  0.00
  YS02001915YS02001910    1.00   0.00  0.00  0.00  0.99  0.01  0.00  0.00  0.14  0.00
  YS02001918YS02001915    1.00   0.00  0.01  0.00  0.99  0.00  0.00  0.00  0.58  0.00
  YS02001923YS02001920    1.00   0.00  0.00  0.00  1.00  0.00  0.00  0.00  0.83  0.00
  YS02001926YS02001923    1.00   0.00  0.02  0.00  0.16  0.00  0.82  0.00  0.00  0.00
  YS02001929YS02001926    1.00   0.00  0.03  0.00  0.97  0.00  0.00  0.00  0.79  0.00
  YS02001920YS02001918    1.00   0.00  0.01  0.00  0.99  0.00  0.00  0.00  0.00  0.00
  YS02001629YS02163301    1.00   0.04  0.00  0.00  0.96  0.00  0.00  0.00  0.00  0.00
  YS02001619YS02001622    1.00   0.03  0.00  0.00  0.97  0.00  0.00  0.00  0.00  0.00
  YS02001622YS02001625    1.00   0.03  0.00  0.00  0.97  0.00  0.00  0.00  0.04  0.00
  YS02001625YS02001629    1.00   0.03  0.01  0.00  0.95  0.00  0.01  0.00  0.00  0.00
  YS02163301YS02001633    1.00   0.00  0.04  0.00  0.96  0.00  0.00  0.00  0.00  0.00
  YS02163601YS02164001    1.00   0.00  0.03  0.00  0.97  0.00  0.00  0.00  0.00  0.00
  YS02164001YS02001641    1.00   0.01  0.01  0.00  0.97  0.00  0.00  0.00  0.06  0.00
  YS02001641YS02001644    1.00   0.00  0.01  0.00  0.99  0.00  0.00  0.00  0.00  0.00
  YS02001647YS02001649    1.00   0.00  0.04  0.00  0.96  0.00  0.00  0.00  0.01  0.00
  YS02006553YS02006556    1.00   0.01  0.00  0.00  0.99  0.00  0.00  0.00  0.03  0.00
  YS02006556YS02006558    1.00   0.00  0.00  0.00  1.00  0.00  0.00  0.00  0.00  0.00
  YSB6556YSB1171          1.00   0.02  0.01  0.00  0.97  0.00  0.00  0.00  0.00  0.00
  YS02001907YS02006553    1.00   0.00  0.01  0.00  0.98  0.00  0.00  0.00  0.00  0.00
  YS02006558YS02006561    1.00   0.04  0.00  0.00  0.20  0.76  0.00  0.00  0.50  0.00
  YS02001633YS02163601    1.00   0.00  0.01  0.00  0.99  0.00  0.00  0.00  0.15  0.00
  YS02001644YS02001647    1.00   0.00  0.04  0.00  0.96  0.00  0.00  0.00  0.00  0.00
  YS02001745YS02001748    1.00   0.00  0.00  0.00  0.93  0.00  0.00  0.06  0.03  0.00
  YS02001748YS02001751    1.00   0.00  0.00  0.00  0.98  0.02  0.00  0.00  0.14  0.00
  YS02001751YS02001754    1.00   0.00  0.00  0.00  0.96  0.00  0.00  0.04  0.01  0.00
  YS02001754YS02001757    1.00   0.00  0.00  0.00  0.99  0.01  0.00  0.00  0.17  0.00
  YS02001882YS02001884    1.00   0.04  0.00  0.00  0.96  0.00  0.00  0.00  0.00  0.00
  YS02001884YS02001887    1.00   0.02  0.01  0.00  0.97  0.00  0.00  0.00  0.00  0.00
  YS02001890YS02001895    1.00   0.00  0.03  0.00  0.96  0.00  0.00  0.00  0.00  0.00
  YS02001895YS02001898    1.00   0.04  0.00  0.00  0.96  0.00  0.00  0.00  0.00  0.00
  YS02001898YS02001901    1.00   0.04  0.00  0.00  0.96  0.00  0.00  0.00  0.01  0.00
  YS02001901YS02001904    1.00   0.04  0.00  0.00  0.96  0.00  0.00  0.00  0.00  0.00
  YS02001904YS02001907    1.00   0.00  0.03  0.00  0.96  0.00  0.00  0.00  0.00  0.00
  YS02001887YS02001890    1.00   0.00  0.00  0.00  0.98  0.00  0.01  0.00  0.00  0.00
  YS02001652YS02001649    1.00   0.00  0.00  0.00  1.00  0.00  0.00  0.00  0.15  0.00
  YS02001655YS02001652    1.00   0.00  0.00  0.00  0.96  0.00  0.00  0.04  0.01  0.00
  YS02001658YS02001655    1.00   0.00  0.03  0.00  0.95  0.01  0.00  0.00  0.02  0.00
  YS02001661YS02001658    1.00   0.03  0.00  0.00  0.93  0.03  0.00  0.00  0.02  0.00
  YS02001664YS02001661    1.00   0.03  0.00  0.00  0.89  0.07  0.00  0.00  0.16  0.00
  YSB1154YSB6556          1.00   0.03  0.00  0.00  0.97  0.00  0.00  0.00  0.01  0.00
  YSB1174YSB1171          1.00   0.02  0.01  0.00  0.97  0.00  0.00  0.00  0.00  0.00
  YSB1171HS02004479       1.00   0.02  0.00  0.00  0.98  0.00  0.00  0.00  0.10  0.00
  HS02004881HS02006253    1.00   0.02  0.00  0.00  0.90  0.00  0.00  0.08  0.74  0.00
  YS02001793JiankangQianchi    1.00   0.00  0.00  0.00  0.53  0.46  0.00  0.00  0.16  0.00
  YS02001757CaochengTiaoxuchi    1.00   0.00  0.05  0.00  0.90  0.05  0.00  0.00  0.00  0.00
  WSF200WS02003060        1.00   0.00  0.04  0.00  0.45  0.52  0.00  0.00  0.18  0.00
  1                       1.00   0.00  0.00  0.00  0.00  1.00  0.00  0.00  0.35  0.00
  2                       1.00   0.42  0.00  0.00  0.00  0.58  0.00  0.00  0.12  0.00
  3                       1.00   0.06  0.00  0.00  0.00  0.94  0.00  0.00  0.02  0.00
  4                       1.00   1.00  0.00  0.00  0.00  0.00  0.00  0.00  0.00  0.00
  
  
  *************************
  Conduit Surcharge Summary
  *************************
  
  ----------------------------------------------------------------------------
                                                           Hours        Hours 
                         --------- Hours Full --------   Above Full   Capacity
  Conduit                Both Ends  Upstream  Dnstream   Normal Flow   Limited
  ----------------------------------------------------------------------------
  WS02006229WS02006228        3.16      3.44      3.16      5.84         3.16
  WS02006256WS02006235        6.31      6.31      7.63      2.53         0.01
  WS02006253WS02006251        0.01      0.01      0.06      0.01         0.01
  WS02006252WS02006251        1.93      1.93      3.17      2.85         0.01
  WS02006251WS02006249        0.01      0.01      0.01      2.09         0.01
  WS02006249WS02006248        0.01      0.01      0.01      5.66         0.01
  WS02006248WS02006247        0.01      0.01      0.04      0.01         0.01
  WS02006247WS02006245        0.03      0.09      0.03      5.83         0.02
  WS02006245WS02006243        0.07      0.07      0.30      0.04         0.01
  WS02006243WS02006242        0.42      0.42      2.33      0.01         0.01
  WS02006242WS02006240        1.09      1.09      3.14      3.06         0.01
  WS02006240WS02006239        1.16      1.16      1.43      0.08         0.01
  WS02006239WS02006238        3.01      3.01      3.13      0.10         0.03
  WS02006238WS02006235        2.99      2.99      3.50      0.01         0.01
  WS02006235WS02006234        1.13      1.13      2.77      6.33         0.01
  WS02006234WS02006232        1.66      1.66      3.60      0.01         0.01
  WS02006232WS02006231        0.64      0.64      3.60      0.01         0.01
  WS02006231WS02006230        0.56      0.56      0.65      6.29         0.01
  WS02006230WS02006229        4.66      5.76      4.66      6.36         4.66
  WS02006228WS02006109        3.30      4.13      3.30      6.24         3.30
  WS02006112WS02006115        0.01      0.01      1.51      0.01         0.01
  WS02006111WS02006112        0.01      0.01      5.96      0.01         0.01
  WS02006110WS02006113        0.01      0.01      3.74      0.01         0.01
  WS02006109WS02006110        0.96      0.96      4.13      0.97         0.01
  WS02004406WS02004407        0.01      0.01      0.35      0.01         0.01
  WS02004405WS02004406        0.35      0.50      0.35      1.44         0.35
  WS02004404WS02004405        0.50      0.56      0.50      6.32         0.50
  WS02004403WS02004404        0.01      0.01      0.56      0.01         0.01
  WS02003072WS02003073        0.01      0.01      0.01      5.86         0.01
  HS02004480HS02004478        0.01      0.01      0.01      0.41         0.01
  YS02001759YS02001757        6.15      6.15      6.19      0.01         0.01
  YS02001762YS02001759        6.14      6.14      6.15      0.01         0.01
  YS02001765YS02001762        6.13      6.13      6.14      0.01         0.01
  YS02001770YS02001767        6.12      6.13      6.12      0.48         0.89
  YS02001774YS02001770        6.11      6.11      6.14      0.01         0.01
  YS02001779YS02001774        5.95      5.95      6.14      0.01         0.01
  YS02001649YS02001757        6.14      6.14      6.19      0.01         0.01
  YS02001767YS02001765        6.12      6.12      6.13      0.01         0.01
  YS02006561YS02001783        0.57      0.57      1.37      0.01         0.01
  YS02001783YS02001784        1.37      1.37      1.40      1.38         1.13
  YS02001784YS02001785        1.37      1.40      1.37      2.22         1.37
  YS02001788YS02001790        1.37      1.37      2.08      0.01         0.01
  YS02001790YS02001791        2.08      2.08      2.11      0.01         0.03
  YS02001791YS02001793        2.11      2.11      2.20      0.01         0.01
  YS02001910YS02001907        1.14      1.14      1.68      0.01         0.01
  YS02001786YS02001788        1.37      1.37      1.37      1.82         1.36
  YS02001915YS02001910        0.87      0.87      1.14      0.01         0.01
  YS02001918YS02001915        0.01      0.01      0.87      0.01         0.01
  YS02001923YS02001920        0.01      0.01      0.23      0.01         0.01
  YS02001920YS02001918        0.01      0.01      0.23      0.01         0.01
  YS02001629YS02163301        6.10      6.10      6.11      0.01         0.01
  YS02001619YS02001622        5.76      5.76      5.80      0.01         0.01
  YS02001622YS02001625        5.80      5.80      6.09      0.01         0.01
  YS02001625YS02001629        5.77      5.77      6.09      0.01         0.01
  YS02163301YS02001633        6.11      6.11      6.12      0.01         0.01
  YS02163601YS02164001        6.12      6.12      6.15      0.01         0.01
  YS02164001YS02001641        6.12      6.12      6.13      0.01         0.02
  YS02001641YS02001644        6.13      6.13      6.13      1.41         1.52
  YS02001647YS02001649        6.06      6.06      6.14      0.01         0.01
  YS02006553YS02006556        1.42      1.42      1.72      0.01         0.01
  YS02006556YS02006558        1.58      1.58      1.80      0.01         0.01
  YS02001907YS02006553        2.23      2.23      2.42      0.01         0.01
  YS02006558YS02006561        1.01      1.37      1.01      2.09         1.01
  YS02001633YS02163601        6.12      6.12      6.15      0.01         0.01
  YS02001644YS02001647        6.06      6.06      6.13      0.01         0.01
  YS02001745YS02001748        0.01      0.01      5.54      0.01         0.01
  YS02001748YS02001751        5.62      5.62      5.77      0.01         0.01
  YS02001751YS02001754        5.77      5.77      5.97      0.01         0.01
  YS02001754YS02001757        6.03      6.03      6.19      0.01         0.01
  YS02001882YS02001884        0.89      0.89      0.94      0.01         0.01
  YS02001884YS02001887        1.02      1.02      1.05      0.01         0.01
  YS02001890YS02001895        0.84      0.84      1.16      0.01         0.01
  YS02001895YS02001898        0.81      0.81      0.84      0.01         0.01
  YS02001898YS02001901        0.85      0.85      1.01      0.01         0.01
  YS02001901YS02001904        0.98      0.98      1.01      0.01         0.01
  YS02001904YS02001907        0.98      0.98      1.75      0.01         0.01
  YS02001887YS02001890        1.09      1.09      1.13      0.01         0.01
  YS02001652YS02001649        6.06      6.06      6.14      0.01         0.01
  YS02001655YS02001652        5.79      5.79      6.03      0.01         0.01
  YS02001658YS02001655        5.59      5.59      5.79      0.01         0.01
  YS02001661YS02001658        0.21      0.21      5.60      0.01         0.01
  YS02001664YS02001661        0.01      0.01      1.10      0.01         0.01
  YS02001793JiankangQianchi        2.18      2.18      3.00      0.01         0.01
  YS02001757CaochengTiaoxuchi        5.41      5.41      6.19      0.01         0.01
  3                           0.01      0.01      0.01      0.01         0.01
  
  
  ***************
  Pumping Summary
  ***************
  
  ---------------------------------------------------------------------------------------------------------
                                                  Min       Avg       Max     Total     Power    % Time Off
                        Percent   Number of      Flow      Flow      Flow    Volume     Usage    Pump Curve
  Pump                 Utilized   Start-Ups       LPS       LPS       LPS  10^6 ltr     Kw-hr    Low   High
  ---------------------------------------------------------------------------------------------------------
  CC-Pump-1               76.13           4      0.00    150.57    200.00     3.250      4.77    0.0    7.4
  CC-Pump-2               69.74           7      0.00    140.31    200.00     2.770      4.22    0.0    8.0
  JK-Pump-1               82.98           6      0.00    197.71    300.00     3.730     44.39    0.0    0.0
  JK-Pump-2               89.36           6      0.00    177.66    300.00     3.620     43.50    0.0    0.0
  XR-Pump-1               80.84           9      0.00     64.59     95.00     1.511     10.68    0.0    0.0
  XR-Pump-2               80.84           7      0.00     71.30     95.00     1.625     11.15    0.0    0.0
  XR-Pump-3               72.32          11      0.00     59.49     95.00     1.225      7.93    0.0    0.0
  XR-Pump-4               85.09          10      0.00     59.12     95.00     1.539     12.80    0.0    0.0
  

  Analysis begun on:  Mon Dec 20 21:49:09 2021
  Analysis ended on:  Mon Dec 20 21:49:13 2021
  Total elapsed time: 00:00:04