
  EPA STORM WATER MANAGEMENT MODEL - VERSION 5.1 (Build 5.3.0.dev0)
  --------------------------------------------------------------

  WARNING 04: minimum elevation drop used for Conduit WS02004404WS02004405
  WARNING 03: negative offset ignored for Link YS02001904YS02001907
  
  *********************************************************
  NOTE: The summary statistics displayed in this report are
  based on results found at every computational time step,  
  not just on results from each reporting time step.
  *********************************************************
  
  ****************
  Analysis Options
  ****************
  Flow Units ............... LPS
  Process Models:
    Rainfall/Runoff ........ YES
    RDII ................... NO
    Snowmelt ............... NO
    Groundwater ............ NO
    Flow Routing ........... YES
    Ponding Allowed ........ NO
    Water Quality .......... NO
  Infiltration Method ...... HORTON
  Flow Routing Method ...... DYNWAVE
  Surcharge Method ......... EXTRAN
  Starting Date ............ 08/28/2015 08:00:00
  Ending Date .............. 08/28/2015 15:50:00
  Antecedent Dry Days ...... 8.0
  Report Time Step ......... 00:01:00
  Wet Time Step ............ 00:01:00
  Dry Time Step ............ 00:01:00
  Routing Time Step ........ 5.00 sec
  Variable Time Step ....... YES
  Maximum Trials ........... 8
  Number of Threads ........ 4
  Head Tolerance ........... 0.001500 m
  
  
  **************************        Volume         Depth
  Runoff Quantity Continuity     hectare-m            mm
  **************************     ---------       -------
  Total Precipitation ......         5.556        12.164
  Evaporation Loss .........         0.000         0.000
  Infiltration Loss ........         1.427         3.124
  Surface Runoff ...........         3.072         6.726
  Final Storage ............         1.058         2.316
  Continuity Error (%) .....        -0.016
  
  
  **************************        Volume        Volume
  Flow Routing Continuity        hectare-m      10^6 ltr
  **************************     ---------     ---------
  Dry Weather Inflow .......         0.616         6.165
  Wet Weather Inflow .......         3.071        30.709
  Groundwater Inflow .......         0.000         0.000
  RDII Inflow ..............         0.000         0.000
  External Inflow ..........         0.102         1.024
  External Outflow .........         2.185        21.850
  Flooding Loss ............         1.185        11.846
  Evaporation Loss .........         0.000         0.000
  Exfiltration Loss ........         0.000         0.000
  Initial Stored Volume ....         0.076         0.761
  Final Stored Volume ......         0.627         6.271
  Continuity Error (%) .....        -3.389
  
  
  *************************
  Highest Continuity Errors
  *************************
  Node HS02004842 (16.24%)
  Node JK-storage (-14.64%)
  Node YS02001884 (11.10%)
  Node YSB1171 (3.12%)
  Node HS02004817 (2.99%)
  
  
  ***************************
  Time-Step Critical Elements
  ***************************
  Link 3 (54.99%)
  Link WS02006252WS02006251 (34.70%)
  Link WS02006238WS02006235 (2.89%)
  Link WS02004404WS02004405 (1.49%)
  Link WS02006280WS02006229 (1.43%)
  
  
  ********************************
  Highest Flow Instability Indexes
  ********************************
  Link YS02001619YS02001622 (37)
  Link YS02163301YS02001633 (36)
  Link YS02163601YS02164001 (36)
  Link YS02001629YS02163301 (36)
  Link WS02006113WS02006111 (34)
  
  
  *************************
  Routing Time Step Summary
  *************************
  Minimum Time Step           :     0.25 sec
  Average Time Step           :     0.78 sec
  Maximum Time Step           :     5.00 sec
  Percent in Steady State     :    -0.00
  Average Iterations per Step :     4.59
  Percent Not Converging      :    22.10
  
  
  ***************************
  Subcatchment Runoff Summary
  ***************************
  
  ------------------------------------------------------------------------------------------------------------------------------
                            Total      Total      Total      Total     Imperv       Perv      Total       Total     Peak  Runoff
                           Precip      Runon       Evap      Infil     Runoff     Runoff     Runoff      Runoff   Runoff   Coeff
  Subcatchment                 mm         mm         mm         mm         mm         mm         mm    10^6 ltr      LPS
  ------------------------------------------------------------------------------------------------------------------------------
  sub0                      12.16       0.00       0.00       0.85      10.05       0.00      10.05        0.01     1.91   0.826
  sub1                      12.16       0.00       0.00       1.34       9.56       0.00       9.56        0.06    14.15   0.786
  sub2                      12.16       0.00       0.00       4.50       6.75       0.00       6.75        0.06    13.75   0.555
  sub3                      12.16       0.00       0.00       4.50       6.71       0.00       6.71        0.15    32.07   0.552
  sub4                      12.16       0.00       0.00       1.34       9.40       0.00       9.40        0.20    40.20   0.773
  sub5                      12.16       0.00       0.00       0.85       9.99       0.00       9.99        0.11    25.19   0.822
  sub7                      12.16       0.00       0.00       1.09       9.81       0.00       9.81        0.03     7.55   0.807
  sub8                      12.16       0.00       0.00       1.09       9.80       0.00       9.80        0.06    14.17   0.806
  sub9                      12.16       0.00       0.00       1.09       9.80       0.00       9.80        0.05    10.64   0.806
  sub10                     12.16       0.00       0.00       0.97       9.89       0.00       9.89        0.11    24.40   0.813
  sub11                     12.16       0.00       0.00       0.97       9.91       0.00       9.91        0.12    26.15   0.815
  sub12                     12.16       0.00       0.00       1.58       9.39       0.00       9.39        0.08    19.06   0.772
  sub14                     12.16       0.00       0.00       1.09       9.80       0.00       9.80        0.09    21.02   0.805
  sub15                     12.16       0.00       0.00       3.65       7.53       0.00       7.53        0.13    29.11   0.619
  sub16                     12.16       0.00       0.00       4.01       7.23       0.00       7.23        0.08    17.47   0.594
  sub17                     12.16       0.00       0.00       3.89       7.34       0.00       7.34        0.06    14.47   0.603
  sub22                     12.16       0.00       0.00       5.23       6.14       0.00       6.14        0.39    88.27   0.505
  sub23                     12.16       0.00       0.00       4.50       6.79       0.00       6.79        0.32    73.89   0.558
  sub60                     12.16       0.00       0.00       1.46       7.71       0.00       7.71        2.34   297.17   0.634
  sub61                     12.16       0.00       0.00       2.07       7.87       0.00       7.87        2.43   359.80   0.647
  sub62                     12.16       0.00       0.00       0.97       8.55       0.00       8.55        2.63   372.87   0.703
  sub63                     12.16       0.00       0.00       3.53       6.89       0.00       6.89        2.09   327.80   0.567
  sub64                     12.16       0.00       0.00       1.82       7.40       0.00       7.40        2.25   282.66   0.608
  sub65                     12.16       0.00       0.00       1.58       7.52       0.00       7.52        2.31   287.20   0.618
  sub66                     12.16       0.00       0.00       3.53       6.36       0.00       6.36        1.95   257.27   0.523
  sub67                     12.16       0.00       0.00       0.97       9.05       0.00       9.05        2.79   452.90   0.744
  sub68                     12.16       0.00       0.00       1.70       8.28       0.00       8.28        2.55   391.99   0.681
  sub69                     12.16       0.00       0.00       1.82       8.61       0.00       8.61        2.01   355.79   0.708
  sub70                     12.16       8.79       0.00       7.03      11.43       0.10      11.53        2.64   335.00   0.550
  sub71                     12.16       0.00       0.00       0.97       8.31       0.00       8.31        1.96   263.63   0.683
  sub72                     12.16       0.00       0.00       0.85       6.56       0.00       6.56        1.34   129.40   0.540
  sub73                     12.16      11.23       0.00       7.88      12.47       0.08      12.54        2.95   300.52   0.536
  sub74                     12.16       0.00       0.00       9.12       2.57       0.00       2.57        1.03   189.59   0.211
  
  
  ******************
  Node Depth Summary
  ******************
  
  ---------------------------------------------------------------------------------
                                 Average  Maximum  Maximum  Time of Max    Reported
                                   Depth    Depth      HGL   Occurrence   Max Depth
  Node                 Type       Meters   Meters   Meters  days hr:min      Meters
  ---------------------------------------------------------------------------------
  WS02001211           JUNCTION     0.68     0.79     5.63     0  03:01        0.79
  WS02001212           JUNCTION     0.41     0.51     5.57     0  03:02        0.51
  WS02001213           JUNCTION     0.65     0.77     5.53     0  03:03        0.77
  WS02003069           JUNCTION     0.47     0.61     5.20     0  03:05        0.61
  WS02003072           JUNCTION     0.53     0.67     5.04     0  03:06        0.67
  WS02003073           JUNCTION     0.32     0.41     4.48     0  03:06        0.41
  WS02003060           JUNCTION     0.42     0.54     5.47     0  03:05        0.54
  WS02003066           JUNCTION     0.25     0.33     5.88     0  03:06        0.33
  WS02003059           JUNCTION     0.70     0.82     5.51     0  03:04        0.82
  WS02003067           JUNCTION     0.60     0.75     6.07     0  03:06        0.74
  WS02004401           JUNCTION     0.72     0.98     6.98     0  03:04        0.98
  WS02004402           JUNCTION     0.75     0.99     6.95     0  03:04        0.99
  WS02004403           JUNCTION     0.76     1.00     6.93     0  03:04        1.00
  WS02004404           JUNCTION     0.84     1.06     6.91     0  03:04        1.06
  WS02004406           JUNCTION     0.84     1.03     6.86     0  03:04        1.03
  WS02004409           JUNCTION     0.53     0.75     6.52     0  03:05        0.75
  WS02004410           JUNCTION     0.55     0.76     6.48     0  03:05        0.76
  WS02004411           JUNCTION     0.56     0.76     6.44     0  03:05        0.76
  WS02004412           JUNCTION     0.57     0.76     6.40     0  03:05        0.76
  WS02004413           JUNCTION     0.73     0.92     6.39     0  03:06        0.92
  WS02004405           JUNCTION     0.83     1.05     6.90     0  03:04        1.05
  WS02006109           JUNCTION     0.80     1.11     7.73     0  03:02        1.10
  WS02006110           JUNCTION     0.79     1.02     7.60     0  03:02        1.02
  WS02006111           JUNCTION     0.24     0.37     7.08     0  03:03        0.37
  WS02006112           JUNCTION     0.89     1.20     7.09     0  02:50        1.19
  WS02006113           JUNCTION     0.37     0.51     7.41     0  03:02        0.51
  WS02006115           JUNCTION     0.61     0.89     7.03     0  03:03        0.89
  WS02006116           JUNCTION     0.69     0.97     7.01     0  03:03        0.97
  WS02006230           JUNCTION     0.79     1.18     7.92     0  03:01        1.18
  WS02006231           JUNCTION     0.53     0.83     7.96     0  03:00        0.83
  WS02006232           JUNCTION     0.67     0.96     8.00     0  03:00        0.95
  WS02006234           JUNCTION     0.59     0.88     8.04     0  02:59        0.86
  WS02006235           JUNCTION     0.62     0.90     8.07     0  02:59        0.88
  WS02006238           JUNCTION     0.65     0.93     8.08     0  02:59        0.90
  WS02006240           JUNCTION     0.55     0.84     8.13     0  02:59        0.82
  WS02006242           JUNCTION     0.60     0.88     8.15     0  02:59        0.87
  WS02006243           JUNCTION     0.48     0.78     8.20     0  02:59        0.76
  WS02006245           JUNCTION     0.45     0.74     8.23     0  02:59        0.72
  WS02006247           JUNCTION     0.47     0.76     8.26     0  02:59        0.73
  WS02006248           JUNCTION     0.41     0.66     8.24     0  03:00        0.66
  WS02006249           JUNCTION     0.43     0.66     8.26     0  03:00        0.66
  WS02006239           JUNCTION     0.61     0.89     8.10     0  02:59        0.87
  WS02006251           JUNCTION     0.42     0.71     8.38     0  03:00        0.71
  WS02006252           JUNCTION     0.37     0.59     8.83     0  07:40        0.59
  WS02006253           JUNCTION     0.45     0.74     8.39     0  03:00        0.73
  WS02006256           JUNCTION     1.10     2.35     9.28     0  00:00        1.21
  WS02004138           JUNCTION     0.16     0.19     7.44     0  07:42        0.19
  WS02004407           JUNCTION     0.24     0.33     6.64     0  03:04        0.33
  WS02006228           JUNCTION     0.81     1.18     7.83     0  03:00        1.16
  WS02006229           JUNCTION     0.79     1.19     7.88     0  03:01        1.19
  WS02006280           JUNCTION     0.07     0.19     8.46     0  03:02        0.19
  WS02006284           JUNCTION     0.37     0.55     8.95     0  03:02        0.55
  WS02006287           JUNCTION     0.11     0.28     9.24     0  03:01        0.28
  WSF200               JUNCTION     0.24     0.35     5.58     0  03:06        0.35
  HS02004901           JUNCTION     0.13     0.28    10.10     0  03:01        0.28
  HS02004881           JUNCTION     0.01     0.04     9.07     0  03:01        0.04
  HS02004876           JUNCTION     0.05     0.12     9.15     0  03:01        0.12
  HS02004870           JUNCTION     0.02     0.06     9.35     0  03:01        0.06
  HS02004862           JUNCTION     0.02     0.07     9.46     0  03:01        0.07
  HS02004856           JUNCTION     0.08     0.13     9.55     0  03:01        0.13
  HS02004852           JUNCTION     0.01     0.05     9.56     0  03:01        0.05
  HS02004848           JUNCTION     0.01     0.05     9.65     0  03:01        0.05
  HS02004842           JUNCTION     0.33     0.38     9.65     0  03:01        0.38
  HS02004837           JUNCTION     0.03     0.07     9.65     0  03:01        0.07
  HS02004830           JUNCTION     0.04     0.08     9.55     0  03:01        0.08
  HS02004824           JUNCTION     0.03     0.06     9.46     0  03:01        0.06
  HS02004817           JUNCTION     0.45     0.60     9.44     0  03:01        0.60
  HS02004807           JUNCTION     0.13     0.27     9.44     0  03:01        0.27
  HS02004802           JUNCTION     0.17     0.30     9.43     0  03:01        0.30
  HS02004799           JUNCTION     0.13     0.33     9.54     0  03:01        0.33
  HS02004792           JUNCTION     0.04     0.14     9.66     0  03:01        0.14
  HS02004788           JUNCTION     0.03     0.10    10.00     0  03:01        0.10
  HS02004785           JUNCTION     0.05     0.17    10.07     0  03:01        0.17
  HS02004777           JUNCTION     0.15     0.30    10.10     0  03:01        0.30
  HS02004770           JUNCTION     0.12     0.27    10.10     0  03:01        0.27
  HS02004480           JUNCTION     0.09     0.26     9.50     0  03:01        0.26
  HS02004479           JUNCTION     0.13     0.30     9.50     0  03:01        0.30
  HS02004478           JUNCTION     0.07     0.18     9.41     0  03:01        0.18
  YS02001745           JUNCTION     0.69     0.89     8.40     0  03:25        0.88
  YS02001748           JUNCTION     1.08     2.27     9.35     0  02:40        1.33
  YS02001751           JUNCTION     1.26     2.19     9.07     0  02:41        1.53
  YS02001754           JUNCTION     1.52     2.13     8.74     0  02:41        1.81
  YS02001762           JUNCTION     1.72     2.03     8.43     0  03:23        2.02
  YS02001765           JUNCTION     1.67     1.98     8.43     0  03:27        1.97
  YS02001767           JUNCTION     1.64     1.94     8.43     0  03:21        1.93
  YS02001770           JUNCTION     1.63     1.94     8.43     0  02:41        1.91
  YS02001774           JUNCTION     1.70     2.00     8.42     0  02:41        1.97
  YS02001779           JUNCTION     1.45     1.68     8.37     0  02:38        1.68
  YS02001882           JUNCTION     0.53     1.63     8.35     0  02:53        1.60
  YS02001884           JUNCTION     0.62     1.73     8.34     0  02:53        1.70
  YS02001759           JUNCTION     1.76     2.08     8.45     0  02:41        2.06
  YS02001887           JUNCTION     0.70     1.80     8.34     0  02:53        1.78
  YS02001890           JUNCTION     0.73     1.81     8.32     0  02:53        1.80
  YS02001898           JUNCTION     0.50     1.56     8.30     0  02:53        1.54
  YS02001901           JUNCTION     0.62     1.67     8.28     0  02:53        1.66
  YS02001904           JUNCTION     0.60     1.64     8.27     0  02:57        1.63
  YS02001907           JUNCTION     0.93     1.96     8.25     0  02:53        1.96
  YS02001910           JUNCTION     0.72     1.78     8.29     0  02:54        1.77
  YS02001915           JUNCTION     0.51     1.59     8.31     0  02:54        1.57
  YS02001918           JUNCTION     0.26     1.27     8.33     0  02:54        1.25
  YS02001619           JUNCTION     1.23     1.61     8.54     0  02:36        1.48
  YS02001629           JUNCTION     1.59     1.85     8.40     0  02:38        1.85
  YS02001641           JUNCTION     1.69     1.96     8.40     0  02:43        1.93
  YS02001644           JUNCTION     1.69     1.92     8.35     0  02:43        1.92
  YS02001652           JUNCTION     1.53     2.16     8.76     0  02:54        2.07
  YS02001655           JUNCTION     1.30     2.20     9.05     0  02:34        1.95
  YS02001920           JUNCTION     0.36     1.35     8.36     0  02:54        1.31
  YS02001923           JUNCTION     0.20     1.10     8.36     0  02:54        1.07
  YS02001926           JUNCTION     0.26     0.93     8.38     0  02:54        0.88
  YS02001929           JUNCTION     0.14     0.69     8.39     0  02:55        0.69
  YS02001658           JUNCTION     1.02     2.30     9.44     0  02:37        1.85
  YS02001661           JUNCTION     0.80     2.46     9.86     0  02:54        1.88
  YS02001664           JUNCTION     0.35     0.57     8.50     0  02:53        0.56
  YS02001622           JUNCTION     1.26     1.62     8.52     0  02:37        1.50
  YS02001633           JUNCTION     1.68     1.98     8.43     0  02:43        1.94
  YS02001649           JUNCTION     1.73     2.05     8.44     0  02:53        2.05
  YS02001757           JUNCTION     1.85     2.17     8.44     0  03:25        2.17
  YS02001895           JUNCTION     0.49     1.56     8.31     0  02:53        1.55
  YS02001625           JUNCTION     1.54     1.78     8.38     0  02:38        1.78
  YS02163301           JUNCTION     1.62     1.93     8.44     0  02:41        1.87
  YS02163601           JUNCTION     1.73     2.03     8.43     0  02:43        1.98
  YS02164001           JUNCTION     1.67     1.96     8.42     0  02:43        1.91
  YS02001647           JUNCTION     1.52     1.82     8.43     0  02:37        1.79
  YSB1154              JUNCTION     0.27     0.45     9.51     0  03:01        0.45
  YSB6556              JUNCTION     0.16     0.34     9.51     0  03:01        0.34
  YSB1174              JUNCTION     0.22     0.40     9.51     0  03:01        0.40
  YSB1171              JUNCTION     0.42     0.60     9.51     0  03:01        0.60
  YS02006553           JUNCTION     0.93     1.96     8.25     0  02:59        1.96
  YS02006561           JUNCTION     0.30     1.08     7.74     0  03:06        1.08
  YS02006556           JUNCTION     0.90     1.92     8.23     0  03:01        1.91
  YS02006558           JUNCTION     0.94     1.96     8.22     0  02:59        1.95
  YS02001783           JUNCTION     0.53     1.62     7.76     0  02:45        1.46
  YS02001784           JUNCTION     0.55     1.91     7.98     0  02:45        1.41
  YS02001786           JUNCTION     0.49     1.99     8.02     0  02:45        1.26
  YS02001788           JUNCTION     0.42     2.28     8.26     0  02:45        1.12
  YS02001790           JUNCTION     0.54     1.96     7.60     0  02:44        1.29
  YS02001791           JUNCTION     0.50     1.70     7.17     0  02:45        1.27
  YS02001793           JUNCTION     0.66     2.04     6.87     0  02:45        1.80
  WS02004139           JUNCTION     0.63     0.73     5.64     0  03:00        0.73
  WSC                  OUTFALL      0.32     0.41     1.08     0  03:07        0.41
  3                    OUTFALL      0.12     0.23     6.23     0  00:00        0.20
  4                    OUTFALL      0.03     0.16     7.16     0  03:00        0.16
  5                    OUTFALL      0.00     0.00     5.00     0  00:00        0.00
  JK-storage           STORAGE      2.25     5.80     6.60     0  02:44        5.80
  CC-storage           STORAGE      1.07     1.40     8.40     0  03:24        1.40
  XR-storage           STORAGE      6.82     7.72     5.72     0  03:01        7.72
  
  
  *******************
  Node Inflow Summary
  *******************
  
  -------------------------------------------------------------------------------------------------
                                  Maximum  Maximum                  Lateral       Total        Flow
                                  Lateral    Total  Time of Max      Inflow      Inflow     Balance
                                   Inflow   Inflow   Occurrence      Volume      Volume       Error
  Node                 Type           LPS      LPS  days hr:min    10^6 ltr    10^6 ltr     Percent
  -------------------------------------------------------------------------------------------------
  WS02001211           JUNCTION      7.35   386.89     0  07:50       0.207        7.55       0.555
  WS02001212           JUNCTION      0.00   385.95     0  07:50           0        7.51       0.319
  WS02001213           JUNCTION      0.00   385.14     0  07:50           0        7.48       0.373
  WS02003069           JUNCTION      0.32  1030.10     0  03:05     0.00902        16.3       0.227
  WS02003072           JUNCTION      0.00  1030.04     0  03:06           0        16.3       0.267
  WS02003073           JUNCTION      1.82  1031.89     0  03:06      0.0514        16.3       0.308
  WS02003060           JUNCTION     16.53  1029.86     0  03:05       0.466        16.3       0.214
  WS02003066           JUNCTION      0.00   663.54     0  03:06           0        8.46       0.060
  WS02003059           JUNCTION      0.00   383.92     0  07:50           0        7.46       0.567
  WS02003067           JUNCTION      0.00   663.28     0  03:06           0        8.47       0.122
  WS02004401           JUNCTION      0.00   669.12     0  03:03           0        8.74       0.277
  WS02004402           JUNCTION      0.00   668.25     0  03:03           0        8.71       0.259
  WS02004403           JUNCTION      0.00   665.84     0  03:04           0        8.69       0.232
  WS02004404           JUNCTION      0.16   665.97     0  03:04     0.00457        8.67       0.171
  WS02004406           JUNCTION      0.00   666.09     0  03:04           0        8.64       0.416
  WS02004409           JUNCTION      0.00   665.92     0  03:04           0        8.59       0.227
  WS02004410           JUNCTION      0.00   664.90     0  03:05           0        8.57       0.252
  WS02004411           JUNCTION      0.00   664.10     0  03:05           0        8.55       0.255
  WS02004412           JUNCTION      0.00   663.63     0  03:05           0        8.53       0.270
  WS02004413           JUNCTION      0.00   663.45     0  03:05           0        8.51       0.393
  WS02004405           JUNCTION      0.04   666.05     0  03:04     0.00107        8.66       0.258
  WS02006109           JUNCTION      1.23   660.24     0  03:02      0.0347        8.81       0.260
  WS02006110           JUNCTION      0.00   660.17     0  03:02           0        8.79       0.248
  WS02006111           JUNCTION      0.00   693.68     0  03:02           0        8.76       0.061
  WS02006112           JUNCTION     14.47   672.21     0  03:02      0.0629        8.81       0.346
  WS02006113           JUNCTION      0.00   662.04     0  03:02           0        8.77       0.133
  WS02006115           JUNCTION      0.00   672.86     0  03:02           0        8.78       0.275
  WS02006116           JUNCTION      0.00   669.54     0  03:02           0        8.76       0.261
  WS02006230           JUNCTION     10.28   400.79     0  05:02        0.29        6.93       0.210
  WS02006231           JUNCTION      0.00   391.00     0  05:02           0        6.66       0.240
  WS02006232           JUNCTION      0.00   391.01     0  05:02           0        6.68       0.266
  WS02006234           JUNCTION      0.00   392.03     0  05:01           0        6.69       0.157
  WS02006235           JUNCTION      0.00   391.82     0  05:01           0        6.73       0.183
  WS02006238           JUNCTION      0.00   312.81     0  06:50           0         4.6       0.197
  WS02006240           JUNCTION      0.00   323.82     0  07:11           0         4.6       0.347
  WS02006242           JUNCTION      0.00   334.01     0  07:11           0        4.61       0.405
  WS02006243           JUNCTION      0.00   339.00     0  07:11           0        4.61       0.005
  WS02006245           JUNCTION      0.00   341.61     0  06:41           0        4.62       0.351
  WS02006247           JUNCTION      0.00   347.82     0  06:41           0        4.63       0.239
  WS02006248           JUNCTION      0.00   353.48     0  06:40           0        4.64       0.140
  WS02006249           JUNCTION      0.00   475.61     0  03:00           0        5.14       0.321
  WS02006239           JUNCTION      0.00   312.59     0  06:50           0         4.6       0.317
  WS02006251           JUNCTION      0.08   476.15     0  03:00     0.00217        5.18       0.274
  WS02006252           JUNCTION      0.00   400.00     0  05:00           0        4.79       0.010
  WS02006253           JUNCTION      1.91    81.00     0  03:01     0.00814       0.399       2.146
  WS02006256           JUNCTION      0.00   600.00     0  00:00           0         7.3       0.033
  WS02004138           JUNCTION      0.00   380.00     0  07:40           0        7.38       0.076
  WS02004407           JUNCTION      0.00   666.24     0  03:04           0         8.6       0.102
  WS02006228           JUNCTION      0.00   659.02     0  03:02           0        8.79       0.189
  WS02006229           JUNCTION      0.00   658.22     0  03:01           0        8.81       0.141
  WS02006280           JUNCTION      0.00   375.55     0  03:02           0        1.89       0.004
  WS02006284           JUNCTION      0.10   375.54     0  03:02      0.0027        1.89       0.064
  WS02006287           JUNCTION      0.00   375.27     0  03:01           0        1.89       0.037
  WSF200               JUNCTION      0.00   663.62     0  03:06           0        8.46       0.059
  HS02004901           JUNCTION     17.47    17.47     0  03:01      0.0757      0.0759       2.380
  HS02004881           JUNCTION      7.55    79.19     0  03:01      0.0331       0.357       0.064
  HS02004876           JUNCTION     14.15    72.10     0  03:01      0.0636       0.324       0.171
  HS02004870           JUNCTION     14.17    58.27     0  03:01      0.0626       0.261       0.043
  HS02004862           JUNCTION     13.95    44.46     0  03:01      0.0685       0.198       0.089
  HS02004856           JUNCTION     10.64    30.79     0  03:01      0.0471       0.131       1.115
  HS02004852           JUNCTION      0.00    20.44     0  03:01           0       0.084       0.069
  HS02004848           JUNCTION     32.07    32.07     0  03:01       0.151       0.151       0.033
  HS02004842           JUNCTION      0.00    11.42     0  03:01           0      0.0801      19.388
  HS02004837           JUNCTION     30.75    41.91     0  03:01       0.288       0.355       0.230
  HS02004830           JUNCTION      0.15    41.84     0  03:01     0.00423       0.346       0.358
  HS02004824           JUNCTION     40.25    81.79     0  03:01       0.197       0.542       0.100
  HS02004817           JUNCTION      0.60    82.18     0  03:01      0.0169       0.558       3.079
  HS02004807           JUNCTION     26.15   107.24     0  03:01       0.115       0.657       0.656
  HS02004802           JUNCTION      0.00   106.49     0  03:01           0       0.653       0.620
  HS02004799           JUNCTION     21.02   227.51     0  03:01      0.0932        1.06       0.236
  HS02004792           JUNCTION     88.55   207.32     0  03:01       0.396       0.966       0.043
  HS02004788           JUNCTION     30.78   119.37     0  03:01       0.177       0.571       0.068
  HS02004785           JUNCTION      0.15    89.79     0  03:01     0.00423       0.396       0.125
  HS02004777           JUNCTION      0.03    90.24     0  03:01    0.000846       0.397       1.326
  HS02004770           JUNCTION     73.89    90.93     0  03:01       0.324       0.398       0.787
  HS02004480           JUNCTION      0.00   269.28     0  03:01           0        1.25       0.099
  HS02004479           JUNCTION      0.00    42.82     0  03:02           0       0.204       0.360
  HS02004478           JUNCTION      0.00   375.17     0  03:01           0        1.89       0.018
  YS02001745           JUNCTION    297.18   440.69     0  02:40        2.34        2.35       0.421
  YS02001748           JUNCTION      0.04   609.37     0  02:40     0.00127        2.34       0.965
  YS02001751           JUNCTION      0.01   322.19     0  02:33     0.00031        2.31       1.027
  YS02001754           JUNCTION      0.26   309.84     0  03:01     0.00733        2.29       1.089
  YS02001762           JUNCTION      0.00   325.50     0  02:53           0        1.78       1.189
  YS02001765           JUNCTION      0.00   325.73     0  02:53           0        1.78       1.373
  YS02001767           JUNCTION      0.54   325.50     0  02:53      0.0151         1.8       2.010
  YS02001770           JUNCTION    373.02   376.55     0  03:28        2.63        2.78       1.152
  YS02001774           JUNCTION      0.00   377.17     0  03:28           0        1.12       2.291
  YS02001779           JUNCTION      0.01   377.49     0  03:28    0.000141        1.09       1.428
  YS02001882           JUNCTION      0.00    43.38     0  02:46           0      0.0177      13.828
  YS02001884           JUNCTION      0.00    76.91     0  02:46           0      0.0547      12.492
  YS02001759           JUNCTION    359.84   639.57     0  02:53        2.43        4.03       0.570
  YS02001887           JUNCTION    453.35   453.35     0  03:01         2.8        2.83       0.299
  YS02001890           JUNCTION      0.00   453.52     0  03:01           0        2.79       0.329
  YS02001898           JUNCTION      0.00   453.36     0  03:01           0        2.77       0.116
  YS02001901           JUNCTION      0.00   453.84     0  03:01           0        2.77       0.247
  YS02001904           JUNCTION      0.00   453.80     0  03:01           0        2.77       0.226
  YS02001907           JUNCTION      0.00   882.16     0  02:55           0        6.12       0.399
  YS02001910           JUNCTION      0.00   465.89     0  02:55           0        3.37       0.349
  YS02001915           JUNCTION    263.65   465.62     0  02:55        1.96         3.4       0.177
  YS02001918           JUNCTION      0.00   225.26     0  02:55           0        1.45       0.129
  YS02001619           JUNCTION    257.27   257.27     0  03:01        1.95        1.95       0.626
  YS02001629           JUNCTION      0.00   205.43     0  02:49           0        1.63       1.764
  YS02001641           JUNCTION      0.00   432.56     0  02:49           0        3.84       0.550
  YS02001644           JUNCTION    282.70  1081.14     0  03:26        2.25        7.93       0.329
  YS02001652           JUNCTION      0.00   370.92     0  03:01           0        2.04       1.151
  YS02001655           JUNCTION      0.15   371.19     0  03:01     0.00434        2.06       1.224
  YS02001920           JUNCTION      2.87   225.16     0  02:55      0.0809        1.43       0.206
  YS02001923           JUNCTION      0.04   243.85     0  02:55     0.00106        1.34       0.045
  YS02001926           JUNCTION      0.05   194.64     0  02:55     0.00147        1.34       0.251
  YS02001929           JUNCTION    129.40   129.40     0  03:01        1.34        1.34       0.040
  YS02001658           JUNCTION      0.00   642.73     0  02:37           0         2.1       1.051
  YS02001661           JUNCTION      0.00   687.82     0  02:53           0        2.79      -0.064
  YS02001664           JUNCTION    327.80   365.37     0  02:51        2.09        2.78       0.171
  YS02001622           JUNCTION      0.00   257.56     0  03:01           0        1.94       1.659
  YS02001633           JUNCTION    287.40   432.96     0  02:49        2.32         3.9       0.829
  YS02001649           JUNCTION      0.00   919.77     0  02:49           0        5.17       0.720
  YS02001757           JUNCTION      0.00  1743.71     0  02:50           0         9.4       0.992
  YS02001895           JUNCTION      0.00   453.68     0  03:01           0        2.78       0.175
  YS02001625           JUNCTION      0.00   257.24     0  03:01           0         1.9       2.059
  YS02163301           JUNCTION      0.00   207.86     0  02:37           0        1.61       1.503
  YS02163601           JUNCTION      0.11   432.75     0  02:49      0.0031        3.86       0.784
  YS02164001           JUNCTION      0.00   432.59     0  02:49           0        3.84       0.517
  YS02001647           JUNCTION      0.00   656.50     0  02:49           0        4.04       0.708
  YSB1154              JUNCTION     25.19    25.19     0  03:01       0.113       0.114       1.286
  YSB6556              JUNCTION      0.00    24.91     0  03:01           0       0.115       1.100
  YSB1174              JUNCTION     19.06    19.06     0  03:01      0.0821      0.0827       1.581
  YSB1171              JUNCTION      0.00    43.19     0  03:01           0       0.203       3.219
  YS02006553           JUNCTION      0.00   667.46     0  03:17           0         5.9       0.264
  YS02006561           JUNCTION      0.00   964.21     0  03:00           0        8.42       0.007
  YS02006556           JUNCTION      0.00   667.16     0  03:17           0        5.91       0.191
  YS02006558           JUNCTION    392.87   964.55     0  03:00        2.57        8.45       0.064
  YS02001783           JUNCTION      0.00   964.09     0  03:00           0        8.42       0.029
  YS02001784           JUNCTION      1.06   965.25     0  03:00      0.0299        8.45       0.044
  YS02001786           JUNCTION      0.06   965.24     0  03:00     0.00159        8.45       0.040
  YS02001788           JUNCTION      0.07   965.28     0  03:01       0.002        8.45       0.023
  YS02001790           JUNCTION      0.15   965.42     0  03:00     0.00437        8.45       0.029
  YS02001791           JUNCTION      0.00   965.42     0  03:00           0        8.45       0.014
  YS02001793           JUNCTION      0.00   965.53     0  03:00           0        8.45       0.005
  WS02004139           JUNCTION      0.32   380.32     0  07:42     0.00905        7.38       0.606
  WSC                  OUTFALL       0.00  1031.97     0  03:07           0        16.2       0.000
  3                    OUTFALL       0.00   597.65     0  00:00           0        5.14       0.000
  4                    OUTFALL       0.00   230.77     0  03:00           0       0.481       0.000
  5                    OUTFALL       0.00     0.00     0  00:00           0           0       0.000 ltr
  JK-storage           STORAGE       0.00   965.59     0  03:00           0         8.6     -12.770
  CC-storage           STORAGE       0.00  1743.59     0  02:50           0         8.3       0.594
  XR-storage           STORAGE     690.11   690.11     0  03:01        9.61        10.2      -0.001
  
  
  **********************
  Node Surcharge Summary
  **********************
  
  Surcharging occurs when water rises above the top of the highest conduit.
  ---------------------------------------------------------------------
                                               Max. Height   Min. Depth
                                   Hours       Above Crown    Below Rim
  Node                 Type      Surcharged         Meters       Meters
  ---------------------------------------------------------------------
  WS02004404           JUNCTION        0.39          0.060        2.720
  WS02004406           JUNCTION        0.16          0.032        2.418
  WS02004405           JUNCTION        0.20          0.047        2.753
  WS02006109           JUNCTION        2.94          0.289        1.531
  WS02006110           JUNCTION        1.10          0.108        1.742
  WS02006112           JUNCTION        1.19          0.202        1.478
  WS02006230           JUNCTION        0.18          0.097        1.473
  WS02006231           JUNCTION        0.43          0.124        1.406
  WS02006232           JUNCTION        3.28          0.256        1.224
  WS02006234           JUNCTION        0.67          0.159        1.081
  WS02006235           JUNCTION        2.00          0.192        1.098
  WS02006238           JUNCTION        2.47          0.212        1.218
  WS02006240           JUNCTION        0.28          0.127        1.263
  WS02006242           JUNCTION        1.51          0.154        0.666
  WS02006243           JUNCTION        0.12          0.066        0.704
  WS02006245           JUNCTION        0.04          0.033        0.817
  WS02006247           JUNCTION        0.05          0.046        0.714
  WS02006239           JUNCTION        0.74          0.151        1.139
  WS02006252           JUNCTION        2.51          0.193        0.907
  WS02006256           JUNCTION        0.01          1.050        0.000
  WS02006228           JUNCTION        2.79          0.347        1.853
  YS02001748           JUNCTION        5.07          1.190        0.000
  YS02001751           JUNCTION        5.21          1.195        0.005
  YS02001754           JUNCTION        5.40          1.083        0.067
  YS02001762           JUNCTION        5.64          1.035        0.115
  YS02001765           JUNCTION        5.61          0.980        0.120
  YS02001767           JUNCTION        5.58          0.936        0.094
  YS02001770           JUNCTION        5.56          0.907        0.013
  YS02001774           JUNCTION        5.63          0.998        0.052
  YS02001779           JUNCTION        5.40          0.680        0.000
  YS02001882           JUNCTION        0.76          0.630        0.200
  YS02001884           JUNCTION        0.80          0.665        0.205
  YS02001759           JUNCTION        5.66          1.084        0.126
  YS02001887           JUNCTION        0.88          0.751        0.199
  YS02001890           JUNCTION        0.91          0.760        0.000
  YS02001898           JUNCTION        0.72          0.532        0.208
  YS02001901           JUNCTION        0.85          0.674        0.196
  YS02001904           JUNCTION        0.83          0.636        0.214
  YS02001907           JUNCTION        1.49          0.950        0.000
  YS02001910           JUNCTION        0.96          0.779        0.321
  YS02001915           JUNCTION        0.75          0.590        0.410
  YS02001918           JUNCTION        0.51          0.268        0.542
  YS02001619           JUNCTION        5.23          0.610        0.000
  YS02001629           JUNCTION        5.24          0.470        0.000
  YS02001641           JUNCTION        5.62          0.958        0.142
  YS02001644           JUNCTION        5.62          0.920        0.000
  YS02001652           JUNCTION        5.41          1.130        0.000
  YS02001655           JUNCTION        5.24          1.200        0.000
  YS02001920           JUNCTION        0.54          0.348        0.792
  YS02001658           JUNCTION        5.10          1.300        0.000
  YS02001661           JUNCTION        0.21          1.390        0.000
  YS02001622           JUNCTION        5.27          0.620        0.000
  YS02001633           JUNCTION        5.60          0.959        0.101
  YS02001649           JUNCTION        5.64          1.050        0.000
  YS02001757           JUNCTION        5.74          1.175        0.035
  YS02001895           JUNCTION        0.74          0.562        0.188
  YS02001625           JUNCTION        5.43          0.780        0.000
  YS02163301           JUNCTION        5.58          0.926        0.104
  YS02163601           JUNCTION        5.64          1.035        0.045
  YS02164001           JUNCTION        5.61          0.963        0.137
  YS02001647           JUNCTION        5.42          0.816        0.084
  YS02006553           JUNCTION        1.54          0.964        0.226
  YS02006561           JUNCTION        0.63          0.279        0.871
  YS02006556           JUNCTION        1.20          0.878        0.472
  YS02006558           JUNCTION        1.15          0.858        0.542
  YS02001783           JUNCTION        1.14          0.823        0.777
  YS02001784           JUNCTION        1.17          1.109        0.381
  YS02001786           JUNCTION        1.14          1.189        0.241
  YS02001788           JUNCTION        1.14          1.480        0.000
  YS02001790           JUNCTION        2.04          1.157        0.000
  YS02001791           JUNCTION        2.07          0.897        1.023
  YS02001793           JUNCTION        2.14          1.040        1.560
  
  
  *********************
  Node Flooding Summary
  *********************
  
  Flooding refers to all water that overflows a node, whether it ponds or not.
  --------------------------------------------------------------------------
                                                             Total   Maximum
                                 Maximum   Time of Max       Flood    Ponded
                        Hours       Rate    Occurrence      Volume     Depth
  Node                 Flooded       LPS   days hr:min    10^6 ltr    Meters
  --------------------------------------------------------------------------
  WS02006256              0.01    406.11      0  00:00       0.001     0.000
  YS02001748              0.01    182.23      0  02:41       0.000     0.000
  YS02001779              2.34    377.37      0  03:28       1.065     0.000
  YS02001890              0.01      2.89      0  02:53       0.000     0.000
  YS02001907              0.37    304.88      0  03:00       0.204     0.000
  YS02001619              0.01     25.99      0  02:39       0.000     0.000
  YS02001629              0.01     39.39      0  02:39       0.001     0.000
  YS02001644              3.72   1081.04      0  03:26       5.716     0.000
  YS02001652              0.01     24.49      0  02:57       0.000     0.000
  YS02001655              0.01    147.28      0  02:34       0.000     0.000
  YS02001658              0.01    185.66      0  02:37       0.000     0.000
  YS02001661              0.01    195.75      0  02:57       0.001     0.000
  YS02001622              0.01     40.75      0  02:39       0.000     0.000
  YS02001649              0.09     54.41      0  02:55       0.005     0.000
  YS02001625              0.88    169.32      0  03:01       0.240     0.000
  YS02001788              0.01     87.20      0  02:45       0.000     0.000
  YS02001790              0.01    186.25      0  02:44       0.000     0.000
  JK-storage              1.78    962.29      0  03:10       2.556     0.000
  XR-storage              3.91    447.49      0  03:30       2.056     0.000
  
  
  **********************
  Storage Volume Summary
  **********************
  
  --------------------------------------------------------------------------------------------------
                         Average     Avg  Evap Exfil       Maximum     Max    Time of Max    Maximum
                          Volume    Pcnt  Pcnt  Pcnt        Volume    Pcnt     Occurrence    Outflow
  Storage Unit           1000 m3    Full  Loss  Loss       1000 m3    Full    days hr:min        LPS
  --------------------------------------------------------------------------------------------------
  JK-storage               0.113      39     0     0         0.291     100       0  02:44     600.00
  CC-storage               2.994      19     0     0         3.892      25       0  03:24     400.00
  XR-storage               0.819      88     0     0         0.926     100       0  03:01     380.00
  
  
  ***********************
  Outfall Loading Summary
  ***********************
  
  -----------------------------------------------------------
                         Flow       Avg       Max       Total
                         Freq      Flow      Flow      Volume
  Outfall Node           Pcnt       LPS       LPS    10^6 ltr
  -----------------------------------------------------------
  WSC                   99.99    658.50   1031.97      16.227
  3                     94.44    255.69    597.65       5.143
  4                     42.03     50.81    230.77       0.481
  5                      0.00      0.00      0.00       0.000
  -----------------------------------------------------------
  System                59.12    964.99   1433.69      21.850
  
  
  ********************
  Link Flow Summary
  ********************
  
  -----------------------------------------------------------------------------
                                 Maximum  Time of Max   Maximum    Max/    Max/
                                  |Flow|   Occurrence   |Veloc|    Full    Full
  Link                 Type          LPS  days hr:min     m/sec    Flow   Depth
  -----------------------------------------------------------------------------
  WS02003066WSF200     CONDUIT    663.62     0  03:06      2.83    0.11    0.26
  WS02006287WS02006284 CONDUIT    375.45     0  03:02      1.98    0.17    0.29
  WS02006284WS02006280 CONDUIT    375.55     0  03:02      2.22    0.16    0.27
  WS02006280WS02006229 CONDUIT    375.58     0  03:02      3.58    0.08    0.19
  WS02006229WS02006228 CONDUIT    659.02     0  03:02      1.31    2.18    1.00
  WS02006256WS02006235 CONDUIT    177.52     0  00:01      2.73    1.88    1.00
  WS02006253WS02006251 CONDUIT     89.67     0  03:01      0.46    0.27    1.00
  WS02006252WS02006251 CONDUIT    400.39     0  06:09      3.19    1.47    1.00
  WS02006251WS02006249 CONDUIT    475.61     0  03:00      1.25    1.37    0.97
  WS02006249WS02006248 CONDUIT    353.48     0  06:40      1.15    1.94    0.92
  WS02006248WS02006247 CONDUIT    347.82     0  06:41      1.11    0.76    0.97
  WS02006247WS02006245 CONDUIT    341.61     0  06:41      1.07    2.71    1.00
  WS02006245WS02006243 CONDUIT    339.00     0  07:11      1.08    1.00    1.00
  WS02006243WS02006242 CONDUIT    334.01     0  07:11      0.99    0.71    1.00
  WS02006242WS02006240 CONDUIT    323.82     0  07:11      0.93    1.29    1.00
  WS02006240WS02006239 CONDUIT    312.59     0  06:50      0.97    0.98    1.00
  WS02006239WS02006238 CONDUIT    312.81     0  06:50      0.87    1.00    1.00
  WS02006238WS02006235 CONDUIT    312.83     0  06:50      1.32    0.70    1.00
  WS02006235WS02006234 CONDUIT    392.03     0  05:01      1.04    4.14    1.00
  WS02006234WS02006232 CONDUIT    391.01     0  05:02      1.17    0.79    1.00
  WS02006232WS02006231 CONDUIT    391.00     0  05:02      1.06    0.82    1.00
  WS02006231WS02006230 CONDUIT    390.51     0  05:02      1.35    5.92    1.00
  WS02006230WS02006229 CONDUIT    400.71     0  05:03      1.04    8.92    1.00
  WS02006228WS02006109 CONDUIT    659.01     0  03:02      1.31    2.88    1.00
  WS02006116WS02004401 CONDUIT    669.12     0  03:03      0.86    0.92    0.97
  WS02006115WS02006116 CONDUIT    669.54     0  03:02      0.91    0.86    0.90
  WS02006113WS02006111 CONDUIT    693.68     0  03:02      2.59    0.83    0.55
  WS02006112WS02006115 CONDUIT    672.86     0  03:02      0.88    0.40    0.94
  WS02006111WS02006112 CONDUIT    660.37     0  03:03      1.71    0.31    0.73
  WS02006110WS02006113 CONDUIT    662.04     0  03:02      1.51    0.60    0.82
  WS02006109WS02006110 CONDUIT    660.17     0  03:02      1.31    1.27    1.00
  WS02004411WS02004412 CONDUIT    663.63     0  03:05      1.03    0.94    0.76
  WS02004401WS02004402 CONDUIT    668.25     0  03:03      0.85    0.80    0.99
  WS02004413WS02003067 CONDUIT    663.28     0  03:06      1.25    0.28    0.64
  WS02004412WS02004413 CONDUIT    663.45     0  03:05      0.94    0.44    0.84
  WS02004410WS02004411 CONDUIT    664.10     0  03:05      1.03    0.91    0.76
  WS02004409WS02004410 CONDUIT    664.90     0  03:05      1.04    0.86    0.76
  WS02004407WS02004409 CONDUIT    665.92     0  03:04      1.54    0.24    0.54
  WS02004406WS02004407 CONDUIT    666.24     0  03:04      1.20    0.30    0.67
  WS02004405WS02004406 CONDUIT    666.09     0  03:04      0.85    1.31    1.00
  WS02004404WS02004405 CONDUIT    666.01     0  03:04      0.85    6.53    1.00
  WS02004403WS02004404 CONDUIT    665.81     0  03:04      0.85    0.48    1.00
  WS02004402WS02004403 CONDUIT    665.84     0  03:04      0.85    0.96    1.00
  WS02004139WS02001211 CONDUIT    379.55     0  07:50      0.80    0.48    0.59
  WS02004138WS02004139 CONDUIT    380.00     0  07:42      3.34    0.08    0.44
  WS02003067WS02003066 CONDUIT    663.54     0  03:06      1.36    0.21    0.45
  WS02001213WS02003059 CONDUIT    383.92     0  07:50      0.80    0.63    0.79
  WS02001212WS02001213 CONDUIT    385.14     0  07:50      1.30    0.59    0.48
  WS02001211WS02001212 CONDUIT    385.95     0  07:50      0.76    0.30    0.65
  WS02003072WS02003073 CONDUIT   1030.07     0  03:06      1.78    2.22    0.51
  WS02003069WS02003072 CONDUIT   1030.04     0  03:06      1.67    0.50    0.54
  WS02003060WS02003069 CONDUIT   1029.78     0  03:05      1.91    0.40    0.48
  WS02003059WS02003060 CONDUIT    382.29     0  07:50      0.92    0.25    0.68
  HS02004901HS02004770 CONDUIT     17.70     0  03:01      0.07    0.07    0.39
  HS02004876HS02004881 CONDUIT     71.90     0  03:01      0.92    0.76    0.11
  HS02004870HS02004876 CONDUIT     58.03     0  03:01      0.63    0.04    0.13
  HS02004842HS02004848 CONDUIT     11.42     0  03:01      0.05    0.01    0.30
  HS02004837HS02004842 CONDUIT     11.94     0  03:02      0.41    0.01    0.32
  HS02004830HS02004837 CONDUIT     41.69     0  03:01      0.56    0.04    0.11
  HS02004824HS02004830 CONDUIT     41.67     0  03:01      0.58    0.05    0.10
  HS02004817HS02004824 CONDUIT     81.58     0  03:01      0.25    0.04    0.47
  HS02004770HS02004777 CONDUIT     90.21     0  03:01      0.32    0.16    0.41
  HS02004799HS02004480 CONDUIT    226.98     0  03:01      0.78    0.29    0.42
  HS02004792HS02004799 CONDUIT    206.60     0  03:01      0.88    0.13    0.33
  HS02004788HS02004792 CONDUIT    118.94     0  03:01      1.01    0.08    0.17
  HS02004785HS02004788 CONDUIT     89.52     0  03:02      0.66    0.67    0.19
  HS02004777HS02004785 CONDUIT     89.64     0  03:01      0.38    0.11    0.33
  HS02004480HS02004478 CONDUIT    269.12     0  03:01      1.20    1.13    0.32
  HS02004479HS02004480 CONDUIT     44.17     0  03:02      0.23    0.04    0.40
  HS02004862HS02004870 CONDUIT     44.23     0  03:01      0.64    0.05    0.10
  HS02004848HS02004852 CONDUIT     20.44     0  03:01      0.44    0.02    0.07
  HS02004856HS02004862 CONDUIT     30.57     0  03:01      0.47    0.03    0.09
  HS02004852HS02004856 CONDUIT     20.26     0  03:01      0.24    0.02    0.12
  HS02004802HS02004478 CONDUIT    106.59     0  03:02      0.45    0.09    0.35
  HS02004478WS02006287 CONDUIT    375.27     0  03:01      1.68    0.11    0.25
  HS02004817HS02004807 CONDUIT     82.18     0  03:01      0.19    0.05    0.62
  HS02004807HS02004802 CONDUIT    106.49     0  03:01      0.38    0.20    0.40
  YS02001759YS02001757 CONDUIT    639.56     0  02:53      0.81    0.45    1.00
  YS02001762YS02001759 CONDUIT    325.59     0  02:53      0.41    0.38    1.00
  YS02001765YS02001762 CONDUIT    325.50     0  02:53      0.41    0.31    1.00
  YS02001770YS02001767 CONDUIT    324.97     0  02:53      0.41    1.29    1.00
  YS02001774YS02001770 CONDUIT    377.17     0  03:28      0.48    0.24    1.00
  YS02001779YS02001774 CONDUIT    377.48     0  03:28      0.48    0.19    1.00
  YS02001649YS02001757 CONDUIT    919.60     0  02:49      1.17    0.56    1.00
  YS02001767YS02001765 CONDUIT    325.73     0  02:53      0.41    0.41    1.00
  YS02006561YS02001783 CONDUIT    964.09     0  03:00      2.14    0.50    1.00
  YS02001783YS02001784 CONDUIT    964.19     0  03:00      1.92    1.33    1.00
  YS02001784YS02001785 CONDUIT    965.18     0  03:00      1.92    2.25    1.00
  YS02001788YS02001790 CONDUIT    965.26     0  03:00      2.35    0.71    1.00
  YS02001790YS02001791 CONDUIT    965.42     0  03:00      2.86    1.05    1.00
  YS02001791YS02001793 CONDUIT    965.53     0  03:00      5.75    0.41    1.00
  YS02001910YS02001907 CONDUIT    465.74     0  02:55      0.59    0.26    1.00
  YS02001786YS02001788 CONDUIT    965.20     0  03:01      2.25    1.86    1.00
  YS02001915YS02001910 CONDUIT    465.89     0  02:55      0.59    0.23    1.00
  YS02001918YS02001915 CONDUIT    226.69     0  02:55      0.44    0.13    1.00
  YS02001923YS02001920 CONDUIT    222.29     0  02:55      0.68    0.10    1.00
  YS02001926YS02001923 CONDUIT    243.82     0  02:55      0.79    0.35    0.91
  YS02001929YS02001926 CONDUIT    194.59     0  02:55      0.84    0.09    0.79
  YS02001920YS02001918 CONDUIT    225.26     0  02:55      0.67    0.22    1.00
  YS02001629YS02163301 CONDUIT    207.86     0  02:37      0.26    0.26    1.00
  YS02001619YS02001622 CONDUIT    257.56     0  03:01      0.61    0.38    1.00
  YS02001622YS02001625 CONDUIT    257.24     0  03:01      0.33    0.14    1.00
  YS02001625YS02001629 CONDUIT    205.43     0  02:49      0.26    0.10    1.00
  YS02163301YS02001633 CONDUIT    207.98     0  02:37      0.26    0.20    1.00
  YS02163601YS02164001 CONDUIT    432.59     0  02:49      0.55    0.38    1.00
  YS02164001YS02001641 CONDUIT    432.56     0  02:49      0.55    0.59    1.00
  YS02001641YS02001644 CONDUIT    432.43     0  02:49      0.55    1.40    1.00
  YS02001647YS02001649 CONDUIT    656.22     0  02:49      0.84    0.35    1.00
  YS02006553YS02006556 CONDUIT    667.16     0  03:17      0.85    0.57    1.00
  YS02006556YS02006558 CONDUIT    667.73     0  03:17      0.85    0.53    1.00
  YSB6556YSB1171       CONDUIT     24.81     0  03:03      0.09    0.03    0.67
  YS02001907YS02006553 CONDUIT    667.46     0  03:17      0.74    0.79    1.00
  YS02006558YS02006561 CONDUIT    964.21     0  03:00      3.41    2.13    1.00
  YS02001633YS02163601 CONDUIT    432.64     0  02:49      0.55    0.45    1.00
  YS02001644YS02001647 CONDUIT    656.50     0  02:49      0.84    0.39    1.00
  YS02001745YS02001748 CONDUIT    609.32     0  02:40      1.48    0.23    0.94
  YS02001748YS02001751 CONDUIT    322.18     0  02:33      1.05    0.16    1.00
  YS02001751YS02001754 CONDUIT    309.58     0  03:01      0.88    0.15    1.00
  YS02001754YS02001757 CONDUIT    309.76     0  03:01      0.39    0.12    1.00
  YS02001882YS02001884 CONDUIT     43.38     0  02:46      0.09    0.05    1.00
  YS02001884YS02001887 CONDUIT     76.91     0  02:46      0.10    0.10    1.00
  YS02001890YS02001895 CONDUIT    453.68     0  03:01      0.58    0.21    1.00
  YS02001895YS02001898 CONDUIT    453.36     0  03:01      0.59    0.79    1.00
  YS02001898YS02001901 CONDUIT    453.84     0  03:01      0.58    0.29    1.00
  YS02001901YS02001904 CONDUIT    453.80     0  03:01      0.58    0.70    1.00
  YS02001904YS02001907 CONDUIT    453.63     0  03:01      0.58    0.16    1.00
  YS02001887YS02001890 CONDUIT    453.52     0  03:01      0.58    0.78    1.00
  YS02001652YS02001649 CONDUIT    371.20     0  03:00      0.50    0.18    1.00
  YS02001655YS02001652 CONDUIT    370.92     0  03:01      0.93    0.18    1.00
  YS02001658YS02001655 CONDUIT    371.04     0  03:01      1.21    0.16    1.00
  YS02001661YS02001658 CONDUIT    642.73     0  02:37      1.56    0.25    1.00
  YS02001664YS02001661 CONDUIT    687.82     0  02:53      1.53    0.22    0.72
  YSB1154YSB6556       CONDUIT     24.91     0  03:01      0.19    0.04    0.56
  YSB1174YSB1171       CONDUIT     18.78     0  03:01      0.07    0.03    0.68
  YSB1171HS02004479    CONDUIT     42.82     0  03:02      0.54    0.03    0.53
  HS02004881HS02006253 CONDUIT     79.15     0  03:01      2.10    0.02    0.31
  YS02001793JiankangQianchi CONDUIT    965.59     0  03:00     14.37    0.08    1.00
  YS02001757CaochengTiaoxuchi CONDUIT   1743.59     0  02:50      2.30    0.77    1.00
  WSF200WS02003060     CONDUIT    663.69     0  03:06      1.73    0.15    0.37
  1                    CONDUIT   1031.97     0  03:07      3.35    0.36    0.41
  2                    CONDUIT    230.77     0  03:00      6.05    0.55    0.53
  3                    CONDUIT    597.65     0  00:00     10.05    0.95    0.86
  4                    CONDUIT      0.00     0  00:00      0.00    0.00    0.00
  CC-Pump-1            PUMP       200.00     0  03:00              1.00
  CC-Pump-2            PUMP       200.00     0  03:30              1.00
  JK-Pump-1            PUMP       300.00     0  00:00              1.00
  JK-Pump-2            PUMP       300.00     0  00:00              1.00
  XR-Pump-1            PUMP        95.00     0  00:00              1.00
  XR-Pump-2            PUMP        95.00     0  00:00              1.00
  XR-Pump-3            PUMP        95.00     0  00:00              1.00
  XR-Pump-4            PUMP        95.00     0  00:30              1.00
  
  
  ***************************
  Flow Classification Summary
  ***************************
  
  -------------------------------------------------------------------------------------
                      Adjusted    ---------- Fraction of Time in Flow Class ---------- 
                       /Actual         Up    Down  Sub   Sup   Up    Down  Norm  Inlet 
  Conduit               Length    Dry  Dry   Dry   Crit  Crit  Crit  Crit  Ltd   Ctrl  
  -------------------------------------------------------------------------------------
  WS02003066WSF200        1.00   0.04  0.02  0.00  0.00  0.94  0.00  0.00  0.59  0.00
  WS02006287WS02006284    1.00   0.03  0.01  0.00  0.58  0.38  0.00  0.00  0.65  0.00
  WS02006284WS02006280    1.00   0.04  0.00  0.00  0.00  0.00  0.00  0.96  0.00  0.00
  WS02006280WS02006229    1.00   0.04  0.00  0.00  0.00  0.00  0.00  0.96  0.00  0.00
  WS02006229WS02006228    1.00   0.00  0.00  0.00  0.99  0.00  0.00  0.01  0.00  0.00
  WS02006256WS02006235    1.00   0.00  0.00  0.00  1.00  0.00  0.00  0.00  0.00  0.00
  WS02006253WS02006251    1.00   0.02  0.01  0.00  0.97  0.00  0.00  0.00  0.00  0.00
  WS02006252WS02006251    1.00   0.06  0.00  0.00  0.00  0.00  0.94  0.00  0.00  0.00
  WS02006251WS02006249    1.00   0.00  0.00  0.00  1.00  0.00  0.00  0.00  0.25  0.00
  WS02006249WS02006248    1.00   0.00  0.02  0.00  0.91  0.00  0.07  0.00  0.00  0.00
  WS02006248WS02006247    1.00   0.02  0.00  0.00  0.97  0.00  0.00  0.01  0.13  0.00
  WS02006247WS02006245    1.00   0.02  0.00  0.00  0.97  0.00  0.00  0.02  0.00  0.00
  WS02006245WS02006243    1.00   0.01  0.00  0.00  0.95  0.00  0.00  0.04  0.02  0.00
  WS02006243WS02006242    1.00   0.01  0.00  0.00  0.99  0.00  0.00  0.00  0.21  0.00
  WS02006242WS02006240    1.00   0.00  0.00  0.00  1.00  0.00  0.00  0.00  0.00  0.00
  WS02006240WS02006239    1.00   0.00  0.00  0.00  0.97  0.00  0.00  0.03  0.02  0.00
  WS02006239WS02006238    1.00   0.00  0.00  0.00  1.00  0.00  0.00  0.00  0.00  0.00
  WS02006238WS02006235    1.00   0.00  0.00  0.00  1.00  0.00  0.00  0.00  0.00  0.00
  WS02006235WS02006234    1.00   0.00  0.00  0.00  0.96  0.00  0.04  0.00  0.00  0.00
  WS02006234WS02006232    1.00   0.00  0.00  0.00  1.00  0.00  0.00  0.00  0.05  0.00
  WS02006232WS02006231    1.00   0.00  0.00  0.00  0.99  0.00  0.01  0.00  0.00  0.00
  WS02006231WS02006230    1.00   0.00  0.00  0.00  0.78  0.00  0.22  0.00  0.00  0.00
  WS02006230WS02006229    1.00   0.00  0.00  0.00  0.98  0.00  0.00  0.02  0.01  0.00
  WS02006228WS02006109    1.00   0.00  0.00  0.00  1.00  0.00  0.00  0.00  0.00  0.00
  WS02006116WS02004401    1.00   0.02  0.00  0.00  0.98  0.00  0.00  0.00  0.00  0.00
  WS02006115WS02006116    1.00   0.02  0.00  0.00  0.97  0.00  0.00  0.01  0.01  0.00
  WS02006113WS02006111    1.00   0.02  0.00  0.00  0.00  0.98  0.00  0.00  0.10  0.00
  WS02006112WS02006115    1.00   0.02  0.00  0.00  0.98  0.00  0.00  0.00  0.00  0.00
  WS02006111WS02006112    1.00   0.02  0.00  0.00  0.98  0.00  0.00  0.00  0.95  0.00
  WS02006110WS02006113    1.00   0.01  0.00  0.00  0.98  0.00  0.00  0.00  0.00  0.00
  WS02006109WS02006110    1.00   0.00  0.01  0.00  0.98  0.00  0.00  0.00  0.00  0.00
  WS02004411WS02004412    1.00   0.04  0.00  0.00  0.96  0.00  0.00  0.00  0.00  0.00
  WS02004401WS02004402    1.00   0.02  0.00  0.00  0.98  0.00  0.00  0.00  0.00  0.00
  WS02004413WS02003067    1.00   0.05  0.01  0.00  0.00  0.00  0.94  0.00  0.00  0.00
  WS02004412WS02004413    1.00   0.05  0.00  0.00  0.95  0.00  0.00  0.00  0.01  0.00
  WS02004410WS02004411    1.00   0.04  0.00  0.00  0.96  0.00  0.00  0.00  0.00  0.00
  WS02004409WS02004410    1.00   0.04  0.00  0.00  0.96  0.00  0.00  0.00  0.00  0.00
  WS02004407WS02004409    1.00   0.04  0.00  0.00  0.95  0.00  0.00  0.00  0.80  0.00
  WS02004406WS02004407    1.00   0.00  0.04  0.00  0.96  0.00  0.00  0.00  0.00  0.00
  WS02004405WS02004406    1.00   0.00  0.00  0.00  1.00  0.00  0.00  0.00  0.02  0.00
  WS02004404WS02004405    1.00   0.00  0.00  0.00  1.00  0.00  0.00  0.00  0.00  0.00
  WS02004403WS02004404    1.00   0.00  0.02  0.00  0.98  0.00  0.00  0.00  0.02  0.00
  WS02004402WS02004403    1.00   0.02  0.00  0.00  0.98  0.00  0.00  0.00  0.00  0.00
  WS02004139WS02001211    1.00   0.00  0.00  0.00  0.99  0.00  0.01  0.00  0.00  0.00
  WS02004138WS02004139    1.00   0.00  0.00  0.00  0.99  0.01  0.00  0.00  1.00  0.00
  WS02003067WS02003066    1.00   0.06  0.00  0.00  0.94  0.00  0.00  0.00  0.00  0.00
  WS02001213WS02003059    1.00   0.00  0.00  0.00  0.99  0.00  0.00  0.00  0.00  0.00
  WS02001212WS02001213    1.00   0.00  0.00  0.00  0.93  0.00  0.07  0.00  0.00  0.00
  WS02001211WS02001212    1.00   0.00  0.00  0.00  1.00  0.00  0.00  0.00  0.00  0.00
  WS02003072WS02003073    1.00   0.00  0.00  0.00  0.00  0.00  0.00  1.00  0.00  0.00
  WS02003069WS02003072    1.00   0.00  0.00  0.00  0.99  0.01  0.00  0.00  0.20  0.00
  WS02003060WS02003069    1.00   0.00  0.00  0.00  0.99  0.01  0.00  0.00  0.13  0.00
  WS02003059WS02003060    1.00   0.00  0.00  0.00  0.99  0.01  0.00  0.00  0.01  0.00
  HS02004901HS02004770    1.00   0.03  0.00  0.00  0.97  0.00  0.00  0.00  0.00  0.00
  HS02004876HS02004881    1.00   0.02  0.00  0.00  0.90  0.08  0.00  0.00  0.00  0.00
  HS02004870HS02004876    1.00   0.01  0.00  0.00  0.99  0.00  0.00  0.00  0.95  0.00
  HS02004842HS02004848    1.00   0.00  0.03  0.00  0.97  0.00  0.00  0.00  0.58  0.00
  HS02004837HS02004842    1.00   0.00  0.00  0.00  0.99  0.01  0.00  0.00  0.11  0.00
  HS02004830HS02004837    1.00   0.00  0.00  0.00  1.00  0.00  0.00  0.00  0.99  0.00
  HS02004824HS02004830    1.00   0.00  0.00  0.00  1.00  0.00  0.00  0.00  0.00  0.00
  HS02004817HS02004824    1.00   0.00  0.00  0.00  1.00  0.00  0.00  0.00  1.00  0.00
  HS02004770HS02004777    1.00   0.00  0.03  0.00  0.97  0.00  0.00  0.00  0.03  0.00
  HS02004799HS02004480    1.00   0.00  0.02  0.00  0.96  0.00  0.02  0.00  0.00  0.00
  HS02004792HS02004799    1.00   0.00  0.00  0.00  0.99  0.01  0.00  0.00  0.98  0.00
  HS02004788HS02004792    1.00   0.00  0.00  0.00  0.99  0.01  0.00  0.00  0.98  0.00
  HS02004785HS02004788    1.00   0.00  0.00  0.00  1.00  0.00  0.00  0.00  0.00  0.00
  HS02004777HS02004785    1.00   0.00  0.00  0.00  1.00  0.00  0.00  0.00  0.14  0.00
  HS02004480HS02004478    1.00   0.03  0.00  0.00  0.66  0.00  0.00  0.30  0.00  0.00
  HS02004479HS02004480    1.00   0.02  0.00  0.00  0.98  0.00  0.00  0.00  0.13  0.00
  HS02004862HS02004870    1.00   0.00  0.00  0.00  1.00  0.00  0.00  0.00  0.05  0.00
  HS02004848HS02004852    1.00   0.03  0.00  0.00  0.97  0.00  0.00  0.00  0.61  0.00
  HS02004856HS02004862    1.00   0.00  0.04  0.00  0.96  0.00  0.00  0.00  0.80  0.00
  HS02004852HS02004856    1.00   0.03  0.00  0.00  0.96  0.00  0.00  0.00  0.85  0.00
  HS02004802HS02004478    1.00   0.03  0.00  0.00  0.96  0.00  0.00  0.00  0.03  0.00
  HS02004478WS02006287    1.00   0.04  0.00  0.00  0.72  0.23  0.00  0.00  0.66  0.00
  HS02004817HS02004807    1.00   0.00  0.03  0.00  0.97  0.00  0.00  0.00  0.01  0.00
  HS02004807HS02004802    1.00   0.03  0.00  0.00  0.96  0.00  0.00  0.00  0.00  0.00
  YS02001759YS02001757    1.00   0.00  0.00  0.00  1.00  0.00  0.00  0.00  0.16  0.00
  YS02001762YS02001759    1.00   0.00  0.00  0.00  1.00  0.00  0.00  0.00  0.03  0.00
  YS02001765YS02001762    1.00   0.00  0.00  0.00  1.00  0.00  0.00  0.00  0.16  0.00
  YS02001770YS02001767    1.00   0.00  0.00  0.00  1.00  0.00  0.00  0.00  0.00  0.00
  YS02001774YS02001770    1.00   0.00  0.03  0.00  0.96  0.00  0.00  0.00  0.04  0.00
  YS02001779YS02001774    1.00   0.00  0.00  0.00  1.00  0.00  0.00  0.00  0.21  0.00
  YS02001649YS02001757    1.00   0.00  0.00  0.00  1.00  0.00  0.00  0.00  0.17  0.00
  YS02001767YS02001765    1.00   0.00  0.00  0.00  1.00  0.00  0.00  0.00  0.00  0.00
  YS02006561YS02001783    1.00   0.05  0.00  0.00  0.35  0.60  0.00  0.00  0.56  0.00
  YS02001783YS02001784    1.00   0.00  0.05  0.00  0.95  0.00  0.00  0.00  0.01  0.00
  YS02001784YS02001785    1.00   0.00  0.00  0.00  1.00  0.00  0.00  0.00  0.20  0.00
  YS02001788YS02001790    1.00   0.00  0.00  0.00  0.38  0.62  0.00  0.00  0.49  0.00
  YS02001790YS02001791    1.00   0.00  0.00  0.00  0.35  0.65  0.00  0.00  0.47  0.00
  YS02001791YS02001793    1.00   0.00  0.00  0.00  0.34  0.66  0.00  0.00  0.01  0.00
  YS02001910YS02001907    1.00   0.00  0.00  0.00  0.98  0.00  0.00  0.02  0.13  0.00
  YS02001786YS02001788    1.00   0.00  0.00  0.00  0.37  0.63  0.00  0.00  0.00  0.00
  YS02001915YS02001910    1.00   0.00  0.00  0.00  0.99  0.01  0.00  0.00  0.18  0.00
  YS02001918YS02001915    1.00   0.00  0.01  0.00  0.99  0.00  0.00  0.00  0.58  0.00
  YS02001923YS02001920    1.00   0.00  0.00  0.00  1.00  0.00  0.00  0.00  0.86  0.00
  YS02001926YS02001923    1.00   0.00  0.02  0.00  0.13  0.00  0.85  0.00  0.00  0.00
  YS02001929YS02001926    1.00   0.00  0.03  0.00  0.97  0.00  0.00  0.00  0.79  0.00
  YS02001920YS02001918    1.00   0.00  0.01  0.00  0.99  0.00  0.00  0.00  0.00  0.00
  YS02001629YS02163301    1.00   0.04  0.00  0.00  0.96  0.00  0.00  0.00  0.00  0.00
  YS02001619YS02001622    1.00   0.03  0.00  0.00  0.97  0.00  0.00  0.00  0.00  0.00
  YS02001622YS02001625    1.00   0.03  0.00  0.00  0.97  0.00  0.00  0.00  0.07  0.00
  YS02001625YS02001629    1.00   0.03  0.01  0.00  0.94  0.00  0.01  0.00  0.00  0.00
  YS02163301YS02001633    1.00   0.00  0.04  0.00  0.96  0.00  0.00  0.00  0.00  0.00
  YS02163601YS02164001    1.00   0.00  0.03  0.00  0.97  0.00  0.00  0.00  0.00  0.00
  YS02164001YS02001641    1.00   0.01  0.02  0.00  0.97  0.00  0.00  0.00  0.06  0.00
  YS02001641YS02001644    1.00   0.00  0.01  0.00  0.99  0.00  0.00  0.00  0.00  0.00
  YS02001647YS02001649    1.00   0.00  0.04  0.00  0.95  0.00  0.00  0.00  0.01  0.00
  YS02006553YS02006556    1.00   0.02  0.00  0.00  0.98  0.00  0.00  0.00  0.03  0.00
  YS02006556YS02006558    1.00   0.00  0.00  0.00  1.00  0.00  0.00  0.00  0.00  0.00
  YSB6556YSB1171          1.00   0.02  0.01  0.00  0.97  0.00  0.00  0.00  0.00  0.00
  YS02001907YS02006553    1.00   0.00  0.01  0.00  0.98  0.00  0.00  0.00  0.00  0.00
  YS02006558YS02006561    1.00   0.05  0.00  0.00  0.16  0.79  0.00  0.00  0.48  0.00
  YS02001633YS02163601    1.00   0.00  0.01  0.00  0.99  0.00  0.00  0.00  0.16  0.00
  YS02001644YS02001647    1.00   0.00  0.05  0.00  0.95  0.00  0.00  0.00  0.00  0.00
  YS02001745YS02001748    1.00   0.00  0.00  0.00  0.90  0.01  0.00  0.09  0.04  0.00
  YS02001748YS02001751    1.00   0.00  0.00  0.00  0.97  0.03  0.00  0.00  0.15  0.00
  YS02001751YS02001754    1.00   0.00  0.00  0.00  0.95  0.00  0.00  0.05  0.02  0.00
  YS02001754YS02001757    1.00   0.00  0.00  0.00  0.99  0.01  0.00  0.00  0.20  0.00
  YS02001882YS02001884    1.00   0.04  0.00  0.00  0.96  0.00  0.00  0.00  0.00  0.00
  YS02001884YS02001887    1.00   0.02  0.01  0.00  0.97  0.00  0.00  0.00  0.00  0.00
  YS02001890YS02001895    1.00   0.00  0.04  0.00  0.96  0.00  0.00  0.00  0.00  0.00
  YS02001895YS02001898    1.00   0.04  0.00  0.00  0.95  0.00  0.01  0.00  0.00  0.00
  YS02001898YS02001901    1.00   0.04  0.00  0.00  0.96  0.00  0.00  0.00  0.02  0.00
  YS02001901YS02001904    1.00   0.04  0.00  0.00  0.96  0.00  0.00  0.00  0.00  0.00
  YS02001904YS02001907    1.00   0.00  0.04  0.00  0.96  0.00  0.00  0.00  0.00  0.00
  YS02001887YS02001890    1.00   0.00  0.00  0.00  0.98  0.00  0.01  0.00  0.00  0.00
  YS02001652YS02001649    1.00   0.00  0.00  0.00  1.00  0.00  0.00  0.00  0.18  0.00
  YS02001655YS02001652    1.00   0.00  0.00  0.00  0.95  0.00  0.00  0.05  0.02  0.00
  YS02001658YS02001655    1.00   0.00  0.04  0.00  0.94  0.02  0.00  0.00  0.11  0.00
  YS02001661YS02001658    1.00   0.04  0.00  0.00  0.90  0.07  0.00  0.00  0.06  0.00
  YS02001664YS02001661    1.00   0.03  0.00  0.00  0.87  0.09  0.00  0.00  0.22  0.00
  YSB1154YSB6556          1.00   0.03  0.00  0.00  0.97  0.00  0.00  0.00  0.02  0.00
  YSB1174YSB1171          1.00   0.02  0.01  0.00  0.97  0.00  0.00  0.00  0.00  0.00
  YSB1171HS02004479       1.00   0.02  0.00  0.00  0.98  0.00  0.00  0.00  0.11  0.00
  HS02004881HS02006253    1.00   0.02  0.00  0.00  0.72  0.06  0.00  0.21  0.61  0.00
  YS02001793JiankangQianchi    1.00   0.00  0.00  0.00  0.49  0.50  0.00  0.00  0.13  0.00
  YS02001757CaochengTiaoxuchi    1.00   0.00  0.06  0.00  0.93  0.01  0.00  0.00  0.00  0.00
  WSF200WS02003060        1.00   0.00  0.04  0.00  0.74  0.22  0.00  0.00  0.20  0.00
  1                       1.00   0.00  0.00  0.00  0.00  1.00  0.00  0.00  0.35  0.00
  2                       1.00   0.58  0.00  0.00  0.00  0.42  0.00  0.00  0.10  0.00
  3                       1.00   0.06  0.00  0.00  0.00  0.94  0.00  0.00  0.01  0.00
  4                       1.00   1.00  0.00  0.00  0.00  0.00  0.00  0.00  0.00  0.00
  
  
  *************************
  Conduit Surcharge Summary
  *************************
  
  ----------------------------------------------------------------------------
                                                           Hours        Hours 
                         --------- Hours Full --------   Above Full   Capacity
  Conduit                Both Ends  Upstream  Dnstream   Normal Flow   Limited
  ----------------------------------------------------------------------------
  WS02006229WS02006228        2.79      3.12      2.79      4.98         2.79
  WS02006256WS02006235        6.04      6.04      7.67      3.38         0.01
  WS02006253WS02006251        0.01      0.01      0.06      0.01         0.01
  WS02006252WS02006251        1.33      1.33      2.51      2.21         0.01
  WS02006251WS02006249        0.01      0.02      0.01      1.37         0.01
  WS02006249WS02006248        0.01      0.01      0.01      4.21         0.01
  WS02006248WS02006247        0.01      0.01      0.05      0.01         0.01
  WS02006247WS02006245        0.04      0.08      0.04      4.83         0.03
  WS02006245WS02006243        0.07      0.07      0.12      0.01         0.01
  WS02006243WS02006242        0.14      0.14      1.51      0.01         0.01
  WS02006242WS02006240        0.27      0.27      2.21      2.38         0.01
  WS02006240WS02006239        0.48      0.48      0.74      0.01         0.01
  WS02006239WS02006238        2.17      2.17      2.46      0.01         0.02
  WS02006238WS02006235        2.30      2.30      3.00      0.01         0.01
  WS02006235WS02006234        0.67      0.67      2.00      6.05         0.01
  WS02006234WS02006232        0.96      0.96      3.27      0.01         0.01
  WS02006232WS02006231        0.43      0.43      3.27      0.01         0.01
  WS02006231WS02006230        0.18      0.18      0.58      6.05         0.01
  WS02006230WS02006229        4.14      4.75      4.14      6.12         4.14
  WS02006228WS02006109        2.93      3.73      2.93      5.63         2.93
  WS02006112WS02006115        0.01      0.01      1.19      0.01         0.01
  WS02006111WS02006112        0.01      0.01      5.01      0.01         0.01
  WS02006110WS02006113        0.01      0.01      3.42      0.01         0.01
  WS02006109WS02006110        1.10      1.10      3.73      1.11         0.01
  WS02004406WS02004407        0.01      0.01      0.16      0.01         0.01
  WS02004405WS02004406        0.16      0.20      0.16      1.15         0.16
  WS02004404WS02004405        0.20      0.39      0.20      6.00         0.20
  WS02004403WS02004404        0.01      0.01      0.39      0.01         0.01
  WS02003072WS02003073        0.01      0.01      0.01      5.71         0.01
  HS02004480HS02004478        0.01      0.01      0.01      0.25         0.01
  YS02001759YS02001757        5.66      5.66      5.74      0.01         0.01
  YS02001762YS02001759        5.64      5.64      5.66      0.01         0.01
  YS02001765YS02001762        5.61      5.61      5.64      0.01         0.01
  YS02001770YS02001767        5.58      5.58      5.58      0.28         0.76
  YS02001774YS02001770        5.56      5.56      5.63      0.01         0.01
  YS02001779YS02001774        5.40      5.40      5.63      0.01         0.01
  YS02001649YS02001757        5.64      5.64      5.74      0.01         0.01
  YS02001767YS02001765        5.58      5.58      5.61      0.01         0.01
  YS02006561YS02001783        0.63      0.63      1.14      0.01         0.01
  YS02001783YS02001784        1.14      1.14      1.17      1.15         0.95
  YS02001784YS02001785        1.14      1.17      1.14      2.08         1.14
  YS02001788YS02001790        1.14      1.14      2.04      0.01         0.01
  YS02001790YS02001791        2.04      2.04      2.07      0.47         0.47
  YS02001791YS02001793        2.07      2.07      2.16      0.01         0.01
  YS02001910YS02001907        0.96      0.96      1.49      0.01         0.01
  YS02001786YS02001788        1.14      1.14      1.14      1.65         1.14
  YS02001915YS02001910        0.75      0.75      0.96      0.01         0.01
  YS02001918YS02001915        0.51      0.51      0.75      0.01         0.01
  YS02001923YS02001920        0.27      0.27      0.54      0.01         0.01
  YS02001920YS02001918        0.51      0.51      0.54      0.01         0.01
  YS02001629YS02163301        5.57      5.57      5.58      0.01         0.01
  YS02001619YS02001622        5.23      5.23      5.27      0.01         0.01
  YS02001622YS02001625        5.27      5.27      5.43      0.01         0.01
  YS02001625YS02001629        5.24      5.24      5.43      0.01         0.01
  YS02163301YS02001633        5.58      5.58      5.61      0.01         0.01
  YS02163601YS02164001        5.61      5.61      5.64      0.01         0.01
  YS02164001YS02001641        5.61      5.61      5.62      0.01         0.03
  YS02001641YS02001644        5.62      5.62      5.62      1.20         1.38
  YS02001647YS02001649        5.42      5.42      5.64      0.01         0.01
  YS02006553YS02006556        1.20      1.20      1.54      0.01         0.01
  YS02006556YS02006558        1.37      1.37      1.61      0.01         0.01
  YS02001907YS02006553        2.10      2.10      2.30      0.01         0.01
  YS02006558YS02006561        0.86      1.15      0.86      1.93         0.86
  YS02001633YS02163601        5.60      5.60      5.64      0.01         0.01
  YS02001644YS02001647        5.42      5.42      5.62      0.01         0.01
  YS02001745YS02001748        0.01      0.01      5.07      0.01         0.01
  YS02001748YS02001751        5.12      5.12      5.21      0.01         0.01
  YS02001751YS02001754        5.21      5.21      5.40      0.01         0.01
  YS02001754YS02001757        5.42      5.42      5.74      0.01         0.01
  YS02001882YS02001884        0.76      0.76      0.80      0.01         0.01
  YS02001884YS02001887        0.86      0.86      0.88      0.01         0.01
  YS02001890YS02001895        0.74      0.74      0.98      0.01         0.01
  YS02001895YS02001898        0.72      0.72      0.74      0.01         0.01
  YS02001898YS02001901        0.75      0.75      0.85      0.01         0.01
  YS02001901YS02001904        0.83      0.83      0.85      0.01         0.01
  YS02001904YS02001907        0.83      0.83      1.57      0.01         0.01
  YS02001887YS02001890        0.91      0.91      0.94      0.01         0.01
  YS02001652YS02001649        5.43      5.43      5.64      0.01         0.01
  YS02001655YS02001652        5.24      5.24      5.41      0.01         0.01
  YS02001658YS02001655        5.10      5.10      5.24      0.01         0.01
  YS02001661YS02001658        0.20      0.20      5.10      0.01         0.01
  YS02001664YS02001661        0.01      0.01      1.09      0.01         0.01
  YS02001793JiankangQianchi        2.14      2.14      2.76      0.01         0.01
  YS02001757CaochengTiaoxuchi        4.93      4.93      5.74      0.01         0.01
  3                           0.01      0.01      0.01      0.01         0.01
  
  
  ***************
  Pumping Summary
  ***************
  
  ---------------------------------------------------------------------------------------------------------
                                                  Min       Avg       Max     Total     Power    % Time Off
                        Percent   Number of      Flow      Flow      Flow    Volume     Usage    Pump Curve
  Pump                 Utilized   Start-Ups       LPS       LPS       LPS  10^6 ltr     Kw-hr    Low   High
  ---------------------------------------------------------------------------------------------------------
  CC-Pump-1               63.04           6      0.00    133.19    200.00     2.353      3.26    0.0    8.9
  CC-Pump-2               63.04           5      0.00    137.01    200.00     2.440      3.34    0.0   12.2
  JK-Pump-1               89.36           6      0.00    181.98    300.00     3.533     45.08    0.0    0.0
  JK-Pump-2               91.49           7      0.00    186.43    300.00     3.765     50.05    0.0    0.0
  XR-Pump-1               89.36           5      0.00     76.71     95.00     1.938     17.75    0.0    0.0
  XR-Pump-2               91.48           9      0.00     68.70     95.00     1.710     13.66    0.0    0.0
  XR-Pump-3               91.48           8      0.00     75.17     95.00     1.938     15.84    0.0    0.0
  XR-Pump-4               89.35           6      0.00     69.39     95.00     1.795     16.81    0.0    0.0
  

  Analysis begun on:  Wed Dec 22 18:52:50 2021
  Analysis ended on:  Wed Dec 22 18:52:54 2021
  Total elapsed time: 00:00:04