
  EPA STORM WATER MANAGEMENT MODEL - VERSION 5.1 (Build 5.3.0.dev0)
  --------------------------------------------------------------

  WARNING 04: minimum elevation drop used for Conduit WS02004404WS02004405
  WARNING 03: negative offset ignored for Link YS02001904YS02001907
  
  *********************************************************
  NOTE: The summary statistics displayed in this report are
  based on results found at every computational time step,  
  not just on results from each reporting time step.
  *********************************************************
  
  ****************
  Analysis Options
  ****************
  Flow Units ............... LPS
  Process Models:
    Rainfall/Runoff ........ YES
    RDII ................... NO
    Snowmelt ............... NO
    Groundwater ............ NO
    Flow Routing ........... YES
    Ponding Allowed ........ NO
    Water Quality .......... NO
  Infiltration Method ...... HORTON
  Flow Routing Method ...... DYNWAVE
  Surcharge Method ......... EXTRAN
  Starting Date ............ 08/28/2015 08:00:00
  Ending Date .............. 08/28/2015 15:50:00
  Antecedent Dry Days ...... 8.0
  Report Time Step ......... 00:01:00
  Wet Time Step ............ 00:01:00
  Dry Time Step ............ 00:01:00
  Routing Time Step ........ 5.00 sec
  Variable Time Step ....... YES
  Maximum Trials ........... 8
  Number of Threads ........ 4
  Head Tolerance ........... 0.001500 m
  
  
  **************************        Volume         Depth
  Runoff Quantity Continuity     hectare-m            mm
  **************************     ---------       -------
  Total Precipitation ......         6.144        13.452
  Evaporation Loss .........         0.000         0.000
  Infiltration Loss ........         1.572         3.442
  Surface Runoff ...........         3.480         7.619
  Final Storage ............         1.093         2.393
  Continuity Error (%) .....        -0.016
  
  
  **************************        Volume        Volume
  Flow Routing Continuity        hectare-m      10^6 ltr
  **************************     ---------     ---------
  Dry Weather Inflow .......         0.616         6.165
  Wet Weather Inflow .......         3.479        34.789
  Groundwater Inflow .......         0.000         0.000
  RDII Inflow ..............         0.000         0.000
  External Inflow ..........         0.102         1.024
  External Outflow .........         2.173        21.733
  Flooding Loss ............         1.526        15.258
  Evaporation Loss .........         0.000         0.000
  Exfiltration Loss ........         0.000         0.000
  Initial Stored Volume ....         0.076         0.761
  Final Stored Volume ......         0.640         6.395
  Continuity Error (%) .....        -1.520
  
  
  *************************
  Highest Continuity Errors
  *************************
  Node HS02004842 (15.27%)
  Node YS02001884 (12.48%)
  Node JK-storage (-6.19%)
  Node YSB1171 (2.79%)
  Node HS02004817 (2.78%)
  
  
  ***************************
  Time-Step Critical Elements
  ***************************
  Link 3 (49.96%)
  Link WS02006252WS02006251 (40.29%)
  Link WS02006238WS02006235 (2.68%)
  Link WS02006280WS02006229 (1.48%)
  
  
  ********************************
  Highest Flow Instability Indexes
  ********************************
  Link YS02163601YS02164001 (37)
  Link YS02163301YS02001633 (35)
  Link YS02001629YS02163301 (35)
  Link YS02001619YS02001622 (35)
  Link YS02164001YS02001641 (34)
  
  
  *************************
  Routing Time Step Summary
  *************************
  Minimum Time Step           :     0.20 sec
  Average Time Step           :     0.78 sec
  Maximum Time Step           :     5.00 sec
  Percent in Steady State     :    -0.00
  Average Iterations per Step :     4.38
  Percent Not Converging      :    18.78
  
  
  ***************************
  Subcatchment Runoff Summary
  ***************************
  
  ------------------------------------------------------------------------------------------------------------------------------
                            Total      Total      Total      Total     Imperv       Perv      Total       Total     Peak  Runoff
                           Precip      Runon       Evap      Infil     Runoff     Runoff     Runoff      Runoff   Runoff   Coeff
  Subcatchment                 mm         mm         mm         mm         mm         mm         mm    10^6 ltr      LPS
  ------------------------------------------------------------------------------------------------------------------------------
  sub0                      13.45       0.00       0.00       0.89      11.25       0.05      11.30        0.01     3.67   0.840
  sub1                      13.45       0.00       0.00       1.45      10.71       0.03      10.74        0.07    24.31   0.799
  sub2                      13.45       0.00       0.00       4.95       7.56       0.02       7.58        0.07    22.93   0.564
  sub3                      13.45       0.00       0.00       4.96       7.52       0.02       7.54        0.17    51.30   0.560
  sub4                      13.45       0.00       0.00       1.46      10.54       0.02      10.56        0.22    61.94   0.785
  sub5                      13.45       0.00       0.00       0.91      11.19       0.03      11.22        0.13    43.21   0.834
  sub7                      13.45       0.00       0.00       1.17      10.98       0.04      11.03        0.04    13.69   0.820
  sub8                      13.45       0.00       0.00       1.17      10.97       0.04      11.01        0.07    25.15   0.819
  sub9                      13.45       0.00       0.00       1.17      10.97       0.04      11.01        0.05    18.81   0.818
  sub10                     13.45       0.00       0.00       1.04      11.08       0.03      11.11        0.12    42.29   0.826
  sub11                     13.45       0.00       0.00       1.04      11.10       0.04      11.14        0.13    46.68   0.828
  sub12                     13.45       0.00       0.00       1.69      10.51       0.06      10.58        0.09    35.94   0.786
  sub14                     13.45       0.00       0.00       1.17      10.97       0.04      11.01        0.10    37.02   0.818
  sub15                     13.45       0.00       0.00       4.00       8.43       0.04       8.47        0.15    51.03   0.630
  sub16                     13.45       0.00       0.00       4.38       8.09       0.06       8.15        0.09    32.58   0.606
  sub17                     13.45       0.00       0.00       4.25       8.21       0.06       8.27        0.07    26.73   0.615
  sub22                     13.45       0.00       0.00       5.74       6.88       0.04       6.92        0.44   159.06   0.514
  sub23                     13.45       0.00       0.00       4.93       7.60       0.05       7.65        0.36   133.95   0.569
  sub60                     13.45       0.00       0.00       1.61       8.73       0.00       8.74        2.65   387.96   0.649
  sub61                     13.45       0.00       0.00       2.28       8.88       0.00       8.88        2.74   483.52   0.660
  sub62                     13.45       0.00       0.00       1.07       9.65       0.00       9.66        2.97   496.42   0.718
  sub63                     13.45       0.00       0.00       3.90       7.77       0.00       7.77        2.35   446.68   0.578
  sub64                     13.45       0.00       0.00       2.01       8.38       0.00       8.38        2.55   368.35   0.623
  sub65                     13.45       0.00       0.00       1.75       8.52       0.00       8.52        2.62   373.60   0.634
  sub66                     13.45       0.00       0.00       3.90       7.19       0.00       7.19        2.21   337.96   0.535
  sub67                     13.45       0.00       0.00       1.07      10.19       0.01      10.19        3.15   622.58   0.758
  sub68                     13.45       0.00       0.00       1.88       9.34       0.01       9.34        2.87   531.38   0.694
  sub69                     13.45       0.00       0.00       2.01       9.68       0.01       9.69        2.26   503.32   0.720
  sub70                     13.45       9.89       0.00       7.67      12.93       0.26      13.20        3.02   423.72   0.565
  sub71                     13.45       0.00       0.00       1.07       9.40       0.00       9.40        2.22   347.35   0.699
  sub72                     13.45       0.00       0.00       0.94       7.49       0.00       7.50        1.53   163.23   0.557
  sub73                     13.45      12.84       0.00       8.67      14.26       0.27      14.53        3.41   375.92   0.552
  sub74                     13.45       0.00       0.00      10.09       2.88       0.00       2.89        1.15   273.25   0.215
  
  
  ******************
  Node Depth Summary
  ******************
  
  ---------------------------------------------------------------------------------
                                 Average  Maximum  Maximum  Time of Max    Reported
                                   Depth    Depth      HGL   Occurrence   Max Depth
  Node                 Type       Meters   Meters   Meters  days hr:min      Meters
  ---------------------------------------------------------------------------------
  WS02001211           JUNCTION     0.65     0.81     5.64     0  03:10        0.81
  WS02001212           JUNCTION     0.38     0.53     5.60     0  03:11        0.53
  WS02001213           JUNCTION     0.62     0.80     5.56     0  03:11        0.80
  WS02003069           JUNCTION     0.45     0.64     5.23     0  03:11        0.64
  WS02003072           JUNCTION     0.52     0.69     5.07     0  03:12        0.69
  WS02003073           JUNCTION     0.31     0.43     4.50     0  03:12        0.43
  WS02003060           JUNCTION     0.40     0.57     5.50     0  03:11        0.57
  WS02003066           JUNCTION     0.25     0.36     5.91     0  03:05        0.36
  WS02003059           JUNCTION     0.68     0.85     5.54     0  03:11        0.85
  WS02003067           JUNCTION     0.60     0.79     6.11     0  03:04        0.79
  WS02004401           JUNCTION     0.72     1.11     7.11     0  03:03        1.11
  WS02004402           JUNCTION     0.75     1.11     7.07     0  03:03        1.11
  WS02004403           JUNCTION     0.77     1.10     7.03     0  03:03        1.10
  WS02004404           JUNCTION     0.84     1.15     7.00     0  03:03        1.15
  WS02004406           JUNCTION     0.84     1.10     6.93     0  03:03        1.10
  WS02004409           JUNCTION     0.54     0.85     6.62     0  03:04        0.85
  WS02004410           JUNCTION     0.55     0.85     6.57     0  03:04        0.85
  WS02004411           JUNCTION     0.57     0.85     6.53     0  03:04        0.85
  WS02004412           JUNCTION     0.58     0.83     6.47     0  03:04        0.83
  WS02004413           JUNCTION     0.73     0.97     6.44     0  03:04        0.97
  WS02004405           JUNCTION     0.84     1.14     6.99     0  03:03        1.14
  WS02006109           JUNCTION     0.81     1.27     7.89     0  03:02        1.25
  WS02006110           JUNCTION     0.79     1.11     7.70     0  03:02        1.11
  WS02006111           JUNCTION     0.25     0.61     7.32     0  03:03        0.61
  WS02006112           JUNCTION     0.90     1.39     7.27     0  03:03        1.38
  WS02006113           JUNCTION     0.37     0.62     7.51     0  03:02        0.62
  WS02006115           JUNCTION     0.62     1.06     7.20     0  03:03        1.06
  WS02006116           JUNCTION     0.70     1.12     7.16     0  03:03        1.12
  WS02006230           JUNCTION     0.80     1.39     8.14     0  03:02        1.39
  WS02006231           JUNCTION     0.55     1.03     8.15     0  03:02        1.02
  WS02006232           JUNCTION     0.68     1.13     8.16     0  03:02        1.11
  WS02006234           JUNCTION     0.60     1.01     8.17     0  03:01        1.01
  WS02006235           JUNCTION     0.64     1.02     8.19     0  03:01        1.01
  WS02006238           JUNCTION     0.66     1.05     8.19     0  03:00        1.03
  WS02006240           JUNCTION     0.56     0.93     8.22     0  03:01        0.92
  WS02006242           JUNCTION     0.62     0.97     8.24     0  03:01        0.96
  WS02006243           JUNCTION     0.50     0.83     8.25     0  03:01        0.83
  WS02006245           JUNCTION     0.48     0.78     8.26     0  03:00        0.78
  WS02006247           JUNCTION     0.49     0.78     8.28     0  03:00        0.78
  WS02006248           JUNCTION     0.43     0.70     8.29     0  03:00        0.70
  WS02006249           JUNCTION     0.46     0.70     8.30     0  03:00        0.70
  WS02006239           JUNCTION     0.62     0.99     8.20     0  03:02        0.98
  WS02006251           JUNCTION     0.46     0.79     8.46     0  03:00        0.79
  WS02006252           JUNCTION     0.40     0.59     8.84     0  03:34        0.59
  WS02006253           JUNCTION     0.49     0.82     8.47     0  03:00        0.82
  WS02006256           JUNCTION     1.08     2.35     9.28     0  00:00        1.23
  WS02004138           JUNCTION     0.14     0.19     7.44     0  00:30        0.19
  WS02004407           JUNCTION     0.24     0.37     6.68     0  03:03        0.37
  WS02006228           JUNCTION     0.82     1.39     8.04     0  03:02        1.38
  WS02006229           JUNCTION     0.81     1.43     8.12     0  03:02        1.42
  WS02006280           JUNCTION     0.08     0.24     8.52     0  03:02        0.24
  WS02006284           JUNCTION     0.38     0.63     9.02     0  03:02        0.62
  WS02006287           JUNCTION     0.11     0.37     9.32     0  03:02        0.37
  WSF200               JUNCTION     0.24     0.39     5.62     0  03:05        0.39
  HS02004901           JUNCTION     0.14     0.35    10.17     0  03:01        0.35
  HS02004881           JUNCTION     0.01     0.05     9.08     0  03:01        0.05
  HS02004876           JUNCTION     0.05     0.15     9.18     0  03:01        0.15
  HS02004870           JUNCTION     0.02     0.09     9.37     0  03:01        0.09
  HS02004862           JUNCTION     0.02     0.10     9.49     0  03:01        0.10
  HS02004856           JUNCTION     0.08     0.15     9.57     0  03:01        0.15
  HS02004852           JUNCTION     0.01     0.07     9.58     0  03:02        0.07
  HS02004848           JUNCTION     0.01     0.06     9.67     0  03:01        0.06
  HS02004842           JUNCTION     0.34     0.40     9.67     0  03:01        0.40
  HS02004837           JUNCTION     0.03     0.09     9.67     0  03:01        0.09
  HS02004830           JUNCTION     0.04     0.10     9.57     0  03:01        0.10
  HS02004824           JUNCTION     0.03     0.11     9.51     0  03:02        0.11
  HS02004817           JUNCTION     0.45     0.67     9.52     0  03:02        0.67
  HS02004807           JUNCTION     0.14     0.34     9.51     0  03:02        0.34
  HS02004802           JUNCTION     0.17     0.38     9.50     0  03:02        0.38
  HS02004799           JUNCTION     0.13     0.43     9.65     0  03:01        0.43
  HS02004792           JUNCTION     0.04     0.20     9.72     0  03:01        0.19
  HS02004788           JUNCTION     0.03     0.14    10.04     0  03:02        0.14
  HS02004785           JUNCTION     0.05     0.23    10.13     0  03:02        0.23
  HS02004777           JUNCTION     0.16     0.37    10.17     0  03:01        0.37
  HS02004770           JUNCTION     0.13     0.34    10.17     0  03:01        0.34
  HS02004480           JUNCTION     0.09     0.35     9.59     0  03:01        0.35
  HS02004479           JUNCTION     0.13     0.39     9.60     0  03:01        0.39
  HS02004478           JUNCTION     0.07     0.26     9.48     0  03:01        0.26
  YS02001745           JUNCTION     0.70     0.88     8.39     0  03:23        0.87
  YS02001748           JUNCTION     1.09     2.27     9.35     0  02:47        1.92
  YS02001751           JUNCTION     1.28     2.20     9.08     0  02:47        1.86
  YS02001754           JUNCTION     1.53     2.14     8.75     0  02:48        1.89
  YS02001762           JUNCTION     1.73     2.07     8.47     0  02:48        2.02
  YS02001765           JUNCTION     1.68     2.02     8.47     0  02:48        1.96
  YS02001767           JUNCTION     1.65     1.95     8.43     0  02:48        1.92
  YS02001770           JUNCTION     1.64     1.95     8.44     0  02:48        1.90
  YS02001774           JUNCTION     1.71     2.01     8.43     0  02:48        1.96
  YS02001779           JUNCTION     1.46     1.68     8.37     0  02:47        1.68
  YS02001882           JUNCTION     0.60     1.65     8.37     0  02:51        1.62
  YS02001884           JUNCTION     0.70     1.74     8.36     0  02:51        1.73
  YS02001759           JUNCTION     1.77     2.11     8.47     0  02:48        2.06
  YS02001887           JUNCTION     0.78     1.81     8.35     0  03:00        1.80
  YS02001890           JUNCTION     0.81     1.81     8.32     0  02:51        1.81
  YS02001898           JUNCTION     0.57     1.57     8.31     0  02:51        1.56
  YS02001901           JUNCTION     0.69     1.68     8.29     0  02:51        1.67
  YS02001904           JUNCTION     0.67     1.64     8.27     0  02:51        1.63
  YS02001907           JUNCTION     1.00     1.96     8.25     0  02:51        1.96
  YS02001910           JUNCTION     0.79     1.79     8.30     0  02:52        1.79
  YS02001915           JUNCTION     0.59     1.63     8.34     0  02:52        1.61
  YS02001918           JUNCTION     0.33     1.33     8.40     0  02:52        1.32
  YS02001619           JUNCTION     1.25     1.52     8.45     0  02:47        1.48
  YS02001629           JUNCTION     1.60     1.85     8.40     0  02:45        1.84
  YS02001641           JUNCTION     1.70     1.93     8.37     0  03:11        1.93
  YS02001644           JUNCTION     1.70     1.92     8.35     0  02:47        1.92
  YS02001652           JUNCTION     1.54     2.16     8.76     0  02:58        1.96
  YS02001655           JUNCTION     1.31     2.20     9.05     0  03:00        1.94
  YS02001920           JUNCTION     0.42     1.42     8.43     0  02:52        1.41
  YS02001923           JUNCTION     0.26     1.20     8.46     0  02:52        1.18
  YS02001926           JUNCTION     0.30     1.14     8.58     0  02:52        0.96
  YS02001929           JUNCTION     0.18     0.76     8.45     0  02:52        0.74
  YS02001658           JUNCTION     1.04     2.30     9.44     0  03:01        2.01
  YS02001661           JUNCTION     0.81     2.46     9.86     0  02:59        2.14
  YS02001664           JUNCTION     0.36     0.57     8.49     0  04:02        0.56
  YS02001622           JUNCTION     1.27     1.53     8.43     0  02:47        1.49
  YS02001633           JUNCTION     1.69     1.95     8.41     0  02:49        1.94
  YS02001649           JUNCTION     1.74     2.05     8.44     0  02:56        2.05
  YS02001757           JUNCTION     1.86     2.21     8.47     0  02:48        2.16
  YS02001895           JUNCTION     0.57     1.57     8.32     0  02:51        1.56
  YS02001625           JUNCTION     1.55     1.78     8.38     0  02:45        1.78
  YS02163301           JUNCTION     1.63     1.89     8.41     0  02:49        1.88
  YS02163601           JUNCTION     1.74     1.99     8.39     0  02:58        1.98
  YS02164001           JUNCTION     1.68     1.92     8.38     0  02:49        1.91
  YS02001647           JUNCTION     1.53     1.80     8.41     0  03:09        1.79
  YSB1154              JUNCTION     0.27     0.54     9.60     0  03:01        0.54
  YSB6556              JUNCTION     0.16     0.43     9.60     0  03:02        0.43
  YSB1174              JUNCTION     0.22     0.49     9.60     0  03:01        0.49
  YSB1171              JUNCTION     0.42     0.69     9.60     0  03:01        0.69
  YS02006553           JUNCTION     1.00     1.97     8.25     0  03:00        1.96
  YS02006561           JUNCTION     0.36     1.10     7.76     0  02:51        1.09
  YS02006556           JUNCTION     0.97     1.93     8.24     0  03:00        1.93
  YS02006558           JUNCTION     1.01     1.97     8.24     0  02:59        1.96
  YS02001783           JUNCTION     0.59     1.74     7.89     0  02:45        1.47
  YS02001784           JUNCTION     0.60     1.83     7.90     0  02:45        1.42
  YS02001786           JUNCTION     0.54     2.11     8.14     0  02:45        1.26
  YS02001788           JUNCTION     0.46     2.28     8.26     0  02:45        1.12
  YS02001790           JUNCTION     0.57     1.96     7.60     0  02:44        1.29
  YS02001791           JUNCTION     0.53     2.10     7.57     0  05:26        1.27
  YS02001793           JUNCTION     0.72     2.15     6.99     0  05:24        1.80
  WS02004139           JUNCTION     0.59     0.75     5.66     0  03:10        0.75
  WSC                  OUTFALL      0.31     0.43     1.10     0  03:13        0.43
  3                    OUTFALL      0.12     0.23     6.23     0  00:00        0.23
  4                    OUTFALL      0.05     0.20     7.20     0  03:00        0.20
  5                    OUTFALL      0.00     0.00     5.00     0  00:00        0.00
  JK-storage           STORAGE      3.05     5.80     6.60     0  02:44        5.80
  CC-storage           STORAGE      1.07     1.38     8.38     0  03:53        1.38
  XR-storage           STORAGE      7.11     7.72     5.72     0  02:53        7.72
  
  
  *******************
  Node Inflow Summary
  *******************
  
  -------------------------------------------------------------------------------------------------
                                  Maximum  Maximum                  Lateral       Total        Flow
                                  Lateral    Total  Time of Max      Inflow      Inflow     Balance
                                   Inflow   Inflow   Occurrence      Volume      Volume       Error
  Node                 Type           LPS      LPS  days hr:min    10^6 ltr    10^6 ltr     Percent
  -------------------------------------------------------------------------------------------------
  WS02001211           JUNCTION      7.35   382.38     0  05:20       0.207         6.5       0.169
  WS02001212           JUNCTION      0.00   379.33     0  05:21           0        6.49       0.118
  WS02001213           JUNCTION      0.00   379.30     0  05:21           0        6.48       0.198
  WS02003069           JUNCTION      0.32  1107.64     0  03:11     0.00902        15.4       0.106
  WS02003072           JUNCTION      0.00  1107.55     0  03:12           0        15.4       0.148
  WS02003073           JUNCTION      1.82  1109.38     0  03:12      0.0514        15.4       0.156
  WS02003060           JUNCTION     16.53  1107.15     0  03:10       0.466        15.4       0.104
  WS02003066           JUNCTION      0.00   806.42     0  03:05           0        8.54       0.046
  WS02003059           JUNCTION      0.00   380.81     0  05:21           0        6.47       0.361
  WS02003067           JUNCTION      0.00   806.09     0  03:05           0        8.55       0.098
  WS02004401           JUNCTION      0.00   808.90     0  03:03           0        8.76       0.236
  WS02004402           JUNCTION      0.00   808.98     0  03:03           0        8.74       0.223
  WS02004403           JUNCTION      0.00   809.03     0  03:03           0        8.72       0.203
  WS02004404           JUNCTION      0.16   809.22     0  03:03     0.00457        8.71       0.154
  WS02004406           JUNCTION      0.00   809.28     0  03:03           0        8.68       0.374
  WS02004409           JUNCTION      0.00   809.12     0  03:03           0        8.64       0.167
  WS02004410           JUNCTION      0.00   807.64     0  03:04           0        8.62       0.189
  WS02004411           JUNCTION      0.00   806.69     0  03:04           0        8.61       0.194
  WS02004412           JUNCTION      0.00   806.20     0  03:04           0        8.59       0.212
  WS02004413           JUNCTION      0.00   806.04     0  03:04           0        8.57       0.319
  WS02004405           JUNCTION      0.04   809.27     0  03:03     0.00107         8.7       0.233
  WS02006109           JUNCTION      1.23   791.68     0  03:02      0.0347        8.81       0.247
  WS02006110           JUNCTION      0.00   791.66     0  03:02           0        8.79       0.228
  WS02006111           JUNCTION      0.00   789.74     0  03:02           0        8.76       0.049
  WS02006112           JUNCTION     26.73   808.54     0  03:03      0.0709        8.83       0.315
  WS02006113           JUNCTION      0.00   791.65     0  03:02           0        8.77       0.112
  WS02006115           JUNCTION      0.00   808.55     0  03:03           0         8.8       0.222
  WS02006116           JUNCTION      0.00   808.72     0  03:03           0        8.78       0.214
  WS02006230           JUNCTION     10.28   402.50     0  05:00        0.29        6.72       0.174
  WS02006231           JUNCTION      0.00   392.22     0  04:52           0        6.45       0.226
  WS02006232           JUNCTION      0.00   392.24     0  04:52           0        6.46       0.255
  WS02006234           JUNCTION      0.00   394.10     0  04:51           0        6.47       0.130
  WS02006235           JUNCTION      0.00   393.90     0  05:41           0        6.51       0.166
  WS02006238           JUNCTION      0.00   317.66     0  05:23           0        4.67       0.148
  WS02006240           JUNCTION      0.00   333.68     0  02:10           0        4.66       0.257
  WS02006242           JUNCTION      0.00   341.80     0  02:10           0        4.66       0.310
  WS02006243           JUNCTION      0.00   347.93     0  02:10           0        4.65      -0.187
  WS02006245           JUNCTION      0.00   352.23     0  02:10           0        4.66       0.241
  WS02006247           JUNCTION      0.00   356.57     0  02:10           0        4.67       0.147
  WS02006248           JUNCTION      0.00   360.59     0  02:10           0        4.67       0.066
  WS02006249           JUNCTION      0.00   522.42     0  03:00           0        5.76       0.199
  WS02006239           JUNCTION      0.00   322.92     0  02:10           0        4.66       0.181
  WS02006251           JUNCTION      0.08   524.11     0  03:00     0.00217        5.81       0.152
  WS02006252           JUNCTION      0.00   400.00     0  02:10           0        5.36       0.009
  WS02006253           JUNCTION      3.67   134.78     0  03:01     0.00915       0.449       0.858
  WS02006256           JUNCTION      0.00   600.00     0  00:00           0        7.11       0.031
  WS02004138           JUNCTION      0.00   379.99     0  02:40           0         6.3       0.028
  WS02004407           JUNCTION      0.00   809.30     0  03:03           0        8.65       0.079
  WS02006228           JUNCTION      0.00   790.48     0  03:02           0        8.79       0.177
  WS02006229           JUNCTION      0.00   791.41     0  03:02           0        8.81       0.127
  WS02006280           JUNCTION      0.00   611.95     0  03:02           0         2.1       0.003
  WS02006284           JUNCTION      0.10   611.06     0  03:02      0.0027         2.1       0.059
  WS02006287           JUNCTION      0.00   609.83     0  03:02           0         2.1       0.034
  WSF200               JUNCTION      0.00   806.45     0  03:05           0        8.53       0.041
  HS02004901           JUNCTION     32.58    32.58     0  03:01      0.0853      0.0856       2.107
  HS02004881           JUNCTION     13.69   131.68     0  03:01      0.0372       0.403       0.068
  HS02004876           JUNCTION     24.31   119.37     0  03:01      0.0714       0.367       0.153
  HS02004870           JUNCTION     25.15    96.63     0  03:01      0.0703       0.295       0.038
  HS02004862           JUNCTION     23.13    73.48     0  03:01      0.0763       0.225       0.079
  HS02004856           JUNCTION     18.81    51.88     0  03:01      0.0529        0.15       0.974
  HS02004852           JUNCTION      0.00    35.11     0  03:01           0      0.0975       0.061
  HS02004848           JUNCTION     51.30    51.30     0  03:01        0.17        0.17       0.030
  HS02004842           JUNCTION      0.00    15.11     0  03:01           0      0.0852      18.024
  HS02004837           JUNCTION     48.64    62.30     0  03:01       0.302       0.374       0.219
  HS02004830           JUNCTION      0.15    61.39     0  03:01     0.00423       0.364       0.340
  HS02004824           JUNCTION     61.99   121.76     0  03:01       0.222       0.584       0.093
  HS02004817           JUNCTION      0.60   117.99     0  03:02      0.0169       0.601       2.855
  HS02004807           JUNCTION     46.68   158.06     0  03:01       0.129       0.713       0.602
  HS02004802           JUNCTION      0.00   156.91     0  03:03           0       0.709       0.570
  HS02004799           JUNCTION     37.02   389.10     0  03:01       0.105        1.19       0.208
  HS02004792           JUNCTION    159.34   356.45     0  03:01       0.445        1.08       0.038
  HS02004788           JUNCTION     52.70   202.58     0  03:02       0.193       0.638       0.061
  HS02004785           JUNCTION      0.15   157.28     0  03:01     0.00423       0.447       0.112
  HS02004777           JUNCTION      0.03   160.02     0  03:01    0.000846       0.447       1.175
  HS02004770           JUNCTION    133.95   163.77     0  03:01       0.365       0.449       0.699
  HS02004480           JUNCTION      0.00   456.69     0  03:01           0         1.4       0.083
  HS02004479           JUNCTION      0.00    72.19     0  03:02           0       0.228       0.322
  HS02004478           JUNCTION      0.00   609.30     0  03:02           0         2.1       0.019
  YS02001745           JUNCTION    387.96   387.96     0  03:01        2.65        2.65       0.418
  YS02001748           JUNCTION      0.04   612.24     0  02:47     0.00127        2.64       0.874
  YS02001751           JUNCTION      0.01   399.66     0  03:01     0.00031        2.61       0.909
  YS02001754           JUNCTION      0.26   399.96     0  03:01     0.00733         2.6       0.963
  YS02001762           JUNCTION      0.00   409.27     0  02:56           0         1.8       1.181
  YS02001765           JUNCTION      0.00   409.25     0  02:56           0         1.8       1.365
  YS02001767           JUNCTION      0.54   409.13     0  02:56      0.0151        1.82       2.015
  YS02001770           JUNCTION    496.57   496.57     0  03:01        2.97           3       1.075
  YS02001774           JUNCTION      0.00   286.61     0  03:28           0        1.18       2.177
  YS02001779           JUNCTION      0.01   286.95     0  03:28    0.000141        1.15       1.351
  YS02001882           JUNCTION      0.00    61.14     0  02:47           0      0.0154      18.176
  YS02001884           JUNCTION      0.00    87.68     0  02:46           0      0.0507      14.258
  YS02001759           JUNCTION    483.56   818.57     0  02:57        2.74        4.48       0.515
  YS02001887           JUNCTION    623.03   623.03     0  03:01        3.16        3.19       0.274
  YS02001890           JUNCTION      0.00   623.12     0  03:01           0        3.14       0.302
  YS02001898           JUNCTION      0.00   516.91     0  03:08           0        3.09       0.112
  YS02001901           JUNCTION      0.00   517.00     0  03:08           0        3.08       0.231
  YS02001904           JUNCTION      0.00   516.98     0  03:08           0        3.08       0.211
  YS02001907           JUNCTION      0.00  1066.19     0  03:02           0        6.88       0.362
  YS02001910           JUNCTION      0.00   551.10     0  02:53           0        3.81       0.313
  YS02001915           JUNCTION    347.37   550.99     0  02:53        2.22        3.86       0.166
  YS02001918           JUNCTION      0.00   289.11     0  02:53           0        1.66       0.120
  YS02001619           JUNCTION    337.96   337.96     0  03:01        2.21        2.21       0.560
  YS02001629           JUNCTION      0.00   233.88     0  02:51           0        1.58       1.862
  YS02001641           JUNCTION      0.00   494.95     0  02:51           0         4.1       0.513
  YS02001644           JUNCTION    368.39  1022.96     0  03:28        2.55        8.65       0.302
  YS02001652           JUNCTION      0.00   491.13     0  03:01           0         2.3       1.017
  YS02001655           JUNCTION      0.15   491.21     0  03:01     0.00434        2.33       1.103
  YS02001920           JUNCTION      2.87   289.21     0  02:53      0.0809        1.65       0.188
  YS02001923           JUNCTION      0.04   282.28     0  02:53     0.00106        1.55       0.049
  YS02001926           JUNCTION      0.05   232.14     0  02:53     0.00147        1.53       0.222
  YS02001929           JUNCTION    163.23   163.23     0  03:01        1.53        1.53       0.039
  YS02001658           JUNCTION      0.00   508.84     0  03:00           0        2.35       1.029
  YS02001661           JUNCTION      0.00   764.62     0  03:02           0           3      -0.082
  YS02001664           JUNCTION    446.68   446.68     0  03:01        2.35        3.01       0.239
  YS02001622           JUNCTION      0.00   338.13     0  03:01           0        2.19       1.472
  YS02001633           JUNCTION    373.80   495.48     0  02:51        2.63        4.16       0.782
  YS02001649           JUNCTION      0.00  1058.79     0  02:53           0        5.29       0.709
  YS02001757           JUNCTION      0.00  2078.29     0  02:54           0        10.2       0.913
  YS02001895           JUNCTION      0.00   516.99     0  03:08           0        3.09       0.165
  YS02001625           JUNCTION      0.00   338.13     0  03:01           0        2.16       1.831
  YS02163301           JUNCTION      0.00   234.53     0  02:51           0        1.56       1.574
  YS02163601           JUNCTION      0.11   495.52     0  02:51      0.0031        4.13       0.735
  YS02164001           JUNCTION      0.00   495.47     0  02:51           0        4.11       0.490
  YS02001647           JUNCTION      0.00   753.16     0  02:51           0        4.03       0.713
  YSB1154              JUNCTION     43.21    43.21     0  03:01       0.127       0.128       1.144
  YSB6556              JUNCTION      0.00    41.77     0  03:01           0       0.129       0.980
  YSB1174              JUNCTION     35.94    35.94     0  03:01      0.0924      0.0931       1.403
  YSB1171              JUNCTION      0.00    73.32     0  03:01           0       0.227       2.865
  YS02006553           JUNCTION      0.00   671.91     0  03:32           0        6.13       0.259
  YS02006561           JUNCTION      0.00   969.09     0  03:01           0        8.98       0.006
  YS02006556           JUNCTION      0.00   671.88     0  03:32           0        6.13       0.188
  YS02006558           JUNCTION    532.26   969.30     0  03:00         2.9        9.01       0.063
  YS02001783           JUNCTION      0.00   969.08     0  03:01           0        8.98       0.029
  YS02001784           JUNCTION      1.06   970.13     0  03:01      0.0299           9       0.043
  YS02001786           JUNCTION      0.06   970.18     0  03:01     0.00159           9       0.041
  YS02001788           JUNCTION      0.07   970.27     0  03:00       0.002           9       0.024
  YS02001790           JUNCTION      0.15   970.49     0  03:01     0.00437           9       0.028
  YS02001791           JUNCTION      0.00   970.45     0  03:01           0           9       0.012
  YS02001793           JUNCTION      0.00   970.51     0  03:00           0           9       0.005
  WS02004139           JUNCTION      0.32   379.65     0  02:40     0.00905        6.31       0.259
  WSC                  OUTFALL       0.00  1109.35     0  03:13           0        15.4       0.000
  3                    OUTFALL       0.00   597.65     0  00:00           0        5.23       0.000
  4                    OUTFALL       0.00   326.52     0  03:00           0        1.08       0.000
  5                    OUTFALL       0.00     0.00     0  00:00           0           0       0.000 ltr
  JK-storage           STORAGE       0.00   970.53     0  03:00           0        9.15      -5.829
  CC-storage           STORAGE       0.00  2078.15     0  02:54           0        9.07      -0.004
  XR-storage           STORAGE     849.17   849.17     0  03:01        10.2        10.8       0.000
  
  
  **********************
  Node Surcharge Summary
  **********************
  
  Surcharging occurs when water rises above the top of the highest conduit.
  ---------------------------------------------------------------------
                                               Max. Height   Min. Depth
                                   Hours       Above Crown    Below Rim
  Node                 Type      Surcharged         Meters       Meters
  ---------------------------------------------------------------------
  WS02004401           JUNCTION        0.33          0.111        1.549
  WS02004402           JUNCTION        0.39          0.113        1.627
  WS02004403           JUNCTION        0.39          0.102        1.928
  WS02004404           JUNCTION        0.86          0.155        2.625
  WS02004406           JUNCTION        0.68          0.104        2.346
  WS02004405           JUNCTION        0.78          0.136        2.664
  WS02006109           JUNCTION        2.51          0.448        1.372
  WS02006110           JUNCTION        1.14          0.204        1.646
  WS02006112           JUNCTION        1.33          0.390        1.290
  WS02006115           JUNCTION        0.13          0.054        2.196
  WS02006116           JUNCTION        0.16          0.061        2.229
  WS02006230           JUNCTION        0.84          0.314        1.256
  WS02006231           JUNCTION        1.00          0.322        1.208
  WS02006232           JUNCTION        2.76          0.426        1.054
  WS02006234           JUNCTION        1.40          0.294        0.946
  WS02006235           JUNCTION        2.02          0.314        0.976
  WS02006238           JUNCTION        2.35          0.328        1.102
  WS02006240           JUNCTION        1.30          0.217        1.173
  WS02006242           JUNCTION        1.93          0.239        0.581
  WS02006243           JUNCTION        0.90          0.117        0.653
  WS02006245           JUNCTION        0.52          0.070        0.780
  WS02006247           JUNCTION        0.64          0.066        0.694
  WS02006239           JUNCTION        1.70          0.251        1.039
  WS02006252           JUNCTION        2.98          0.193        0.907
  WS02006256           JUNCTION        0.01          1.050        0.000
  WS02006228           JUNCTION        2.36          0.561        1.639
  YS02001748           JUNCTION        4.99          1.190        0.000
  YS02001751           JUNCTION        5.10          1.200        0.000
  YS02001754           JUNCTION        5.21          1.089        0.061
  YS02001762           JUNCTION        5.51          1.071        0.079
  YS02001765           JUNCTION        5.48          1.019        0.081
  YS02001767           JUNCTION        5.44          0.946        0.084
  YS02001770           JUNCTION        5.32          0.920        0.000
  YS02001774           JUNCTION        5.50          1.010        0.040
  YS02001779           JUNCTION        5.21          0.680        0.000
  YS02001882           JUNCTION        1.02          0.652        0.178
  YS02001884           JUNCTION        1.05          0.681        0.189
  YS02001759           JUNCTION        5.54          1.107        0.103
  YS02001887           JUNCTION        1.13          0.759        0.191
  YS02001890           JUNCTION        1.16          0.760        0.000
  YS02001898           JUNCTION        0.98          0.541        0.199
  YS02001901           JUNCTION        1.10          0.682        0.188
  YS02001904           JUNCTION        1.08          0.639        0.211
  YS02001907           JUNCTION        1.67          0.950        0.000
  YS02001910           JUNCTION        1.20          0.794        0.306
  YS02001915           JUNCTION        1.01          0.625        0.375
  YS02001918           JUNCTION        0.78          0.334        0.476
  YS02001619           JUNCTION        5.12          0.516        0.094
  YS02001629           JUNCTION        5.12          0.470        0.000
  YS02001641           JUNCTION        5.50          0.934        0.166
  YS02001644           JUNCTION        5.50          0.920        0.000
  YS02001652           JUNCTION        5.24          1.130        0.000
  YS02001655           JUNCTION        5.12          1.200        0.000
  YS02001920           JUNCTION        0.82          0.424        0.716
  YS02001926           JUNCTION        0.01          0.137        0.763
  YS02001658           JUNCTION        5.01          1.300        0.000
  YS02001661           JUNCTION        0.23          1.390        0.000
  YS02001622           JUNCTION        5.14          0.525        0.095
  YS02001633           JUNCTION        5.48          0.932        0.128
  YS02001649           JUNCTION        5.52          1.050        0.000
  YS02001757           JUNCTION        5.62          1.210        0.000
  YS02001895           JUNCTION        1.00          0.569        0.181
  YS02001625           JUNCTION        5.28          0.780        0.000
  YS02163301           JUNCTION        5.43          0.889        0.141
  YS02163601           JUNCTION        5.52          0.990        0.090
  YS02164001           JUNCTION        5.49          0.922        0.178
  YS02001647           JUNCTION        5.26          0.803        0.097
  YS02006553           JUNCTION        1.72          0.970        0.220
  YS02006561           JUNCTION        0.90          0.304        0.846
  YS02006556           JUNCTION        1.42          0.892        0.458
  YS02006558           JUNCTION        1.38          0.875        0.525
  YS02001783           JUNCTION        1.40          0.945        0.655
  YS02001784           JUNCTION        1.49          1.035        0.455
  YS02001786           JUNCTION        1.41          1.306        0.124
  YS02001788           JUNCTION        1.40          1.480        0.000
  YS02001790           JUNCTION        1.94          1.157        0.000
  YS02001791           JUNCTION        2.01          1.299        0.621
  YS02001793           JUNCTION        2.19          1.153        1.447
  
  
  *********************
  Node Flooding Summary
  *********************
  
  Flooding refers to all water that overflows a node, whether it ponds or not.
  --------------------------------------------------------------------------
                                                             Total   Maximum
                                 Maximum   Time of Max       Flood    Ponded
                        Hours       Rate    Occurrence      Volume     Depth
  Node                 Flooded       LPS   days hr:min    10^6 ltr    Meters
  --------------------------------------------------------------------------
  WS02006256              0.01    406.11      0  00:00       0.001     0.000
  YS02001748              0.01    205.11      0  02:48       0.000     0.000
  YS02001751              0.01      8.30      0  02:47       0.000     0.000
  YS02001770              0.01      5.29      0  02:48       0.000     0.000
  YS02001779              2.64    286.83      0  03:28       1.136     0.000
  YS02001890              0.23    107.12      0  03:01       0.038     0.000
  YS02001907              0.65    618.86      0  03:02       0.735     0.000
  YS02001629              0.01     25.30      0  02:45       0.000     0.000
  YS02001644              4.57   1022.86      0  03:28       6.609     0.000
  YS02001652              0.01     16.88      0  03:00       0.000     0.000
  YS02001655              0.01     24.34      0  03:05       0.000     0.000
  YS02001658              0.01     13.54      0  03:16       0.000     0.000
  YS02001661              0.01    153.87      0  03:01       0.001     0.000
  YS02001649              0.10     43.53      0  03:05       0.006     0.000
  YS02001757              0.01      9.29      0  02:48       0.000     0.000
  YS02001625              1.14    315.78      0  03:01       0.539     0.000
  YS02001788              0.01     92.81      0  02:45       0.000     0.000
  YS02001790              0.01    123.54      0  02:44       0.000     0.000
  JK-storage              1.75    722.23      0  04:00       2.612     0.000
  XR-storage              4.48    640.18      0  03:01       3.581     0.000
  
  
  **********************
  Storage Volume Summary
  **********************
  
  --------------------------------------------------------------------------------------------------
                         Average     Avg  Evap Exfil       Maximum     Max    Time of Max    Maximum
                          Volume    Pcnt  Pcnt  Pcnt        Volume    Pcnt     Occurrence    Outflow
  Storage Unit           1000 m3    Full  Loss  Loss       1000 m3    Full    days hr:min        LPS
  --------------------------------------------------------------------------------------------------
  JK-storage               0.153      53     0     0         0.291     100       0  02:44     600.00
  CC-storage               2.978      19     0     0         3.852      25       0  03:53     400.00
  XR-storage               0.854      92     0     0         0.926     100       0  02:53     379.99
  
  
  ***********************
  Outfall Loading Summary
  ***********************
  
  -----------------------------------------------------------
                         Flow       Avg       Max       Total
                         Freq      Flow      Flow      Volume
  Outfall Node           Pcnt       LPS       LPS    10^6 ltr
  -----------------------------------------------------------
  WSC                   99.99    631.66   1109.35      15.419
  3                     89.01    286.58    597.65       5.232
  4                     50.83    101.54    326.52       1.082
  5                      0.00      0.00      0.00       0.000
  -----------------------------------------------------------
  System                59.96   1019.79   1902.72      21.733
  
  
  ********************
  Link Flow Summary
  ********************
  
  -----------------------------------------------------------------------------
                                 Maximum  Time of Max   Maximum    Max/    Max/
                                  |Flow|   Occurrence   |Veloc|    Full    Full
  Link                 Type          LPS  days hr:min     m/sec    Flow   Depth
  -----------------------------------------------------------------------------
  WS02003066WSF200     CONDUIT    806.45     0  03:05      2.97    0.14    0.29
  WS02006287WS02006284 CONDUIT    610.96     0  03:02      2.31    0.28    0.37
  WS02006284WS02006280 CONDUIT    611.95     0  03:02      2.55    0.26    0.35
  WS02006280WS02006229 CONDUIT    611.97     0  03:02      4.12    0.13    0.25
  WS02006229WS02006228 CONDUIT    790.48     0  03:02      1.57    2.62    1.00
  WS02006256WS02006235 CONDUIT    177.52     0  00:01      2.73    1.88    1.00
  WS02006253WS02006251 CONDUIT    140.72     0  03:01      0.45    0.42    1.00
  WS02006252WS02006251 CONDUIT    400.32     0  02:43      3.19    1.47    1.00
  WS02006251WS02006249 CONDUIT    522.42     0  03:00      1.36    1.51    1.00
  WS02006249WS02006248 CONDUIT    360.59     0  02:10      1.18    1.98    0.99
  WS02006248WS02006247 CONDUIT    356.57     0  02:10      1.15    0.78    1.00
  WS02006247WS02006245 CONDUIT    352.23     0  02:10      1.12    2.79    1.00
  WS02006245WS02006243 CONDUIT    347.93     0  02:10      1.16    1.03    1.00
  WS02006243WS02006242 CONDUIT    341.80     0  02:10      1.04    0.73    1.00
  WS02006242WS02006240 CONDUIT    333.68     0  02:10      0.98    1.33    1.00
  WS02006240WS02006239 CONDUIT    322.92     0  02:10      1.03    1.02    1.00
  WS02006239WS02006238 CONDUIT    317.66     0  05:23      0.93    1.02    1.00
  WS02006238WS02006235 CONDUIT    316.93     0  05:23      1.32    0.71    1.00
  WS02006235WS02006234 CONDUIT    394.10     0  04:51      1.05    4.16    1.00
  WS02006234WS02006232 CONDUIT    392.24     0  04:52      1.17    0.79    1.00
  WS02006232WS02006231 CONDUIT    392.22     0  04:52      1.07    0.82    1.00
  WS02006231WS02006230 CONDUIT    392.22     0  05:00      1.35    5.95    1.00
  WS02006230WS02006229 CONDUIT    402.55     0  05:00      1.05    8.96    1.00
  WS02006228WS02006109 CONDUIT    790.45     0  03:02      1.57    3.45    1.00
  WS02006116WS02004401 CONDUIT    808.90     0  03:03      1.03    1.11    1.00
  WS02006115WS02006116 CONDUIT    808.72     0  03:03      1.03    1.04    1.00
  WS02006113WS02006111 CONDUIT    789.74     0  03:02      2.59    0.95    0.77
  WS02006112WS02006115 CONDUIT    808.55     0  03:03      1.03    0.48    1.00
  WS02006111WS02006112 CONDUIT    790.25     0  03:03      1.72    0.38    0.88
  WS02006110WS02006113 CONDUIT    791.65     0  03:02      1.68    0.72    0.88
  WS02006109WS02006110 CONDUIT    791.66     0  03:02      1.57    1.52    1.00
  WS02004411WS02004412 CONDUIT    806.20     0  03:04      1.14    1.15    0.84
  WS02004401WS02004402 CONDUIT    808.98     0  03:03      1.03    0.97    1.00
  WS02004413WS02003067 CONDUIT    806.09     0  03:05      1.40    0.35    0.69
  WS02004412WS02004413 CONDUIT    806.04     0  03:04      1.08    0.54    0.90
  WS02004410WS02004411 CONDUIT    806.69     0  03:04      1.14    1.10    0.85
  WS02004409WS02004410 CONDUIT    807.64     0  03:04      1.13    1.04    0.85
  WS02004407WS02004409 CONDUIT    809.12     0  03:03      1.62    0.29    0.61
  WS02004406WS02004407 CONDUIT    809.30     0  03:03      1.42    0.36    0.68
  WS02004405WS02004406 CONDUIT    809.28     0  03:03      1.03    1.60    1.00
  WS02004404WS02004405 CONDUIT    809.23     0  03:03      1.03    7.93    1.00
  WS02004403WS02004404 CONDUIT    809.06     0  03:03      1.03    0.58    1.00
  WS02004402WS02004403 CONDUIT    809.03     0  03:03      1.03    1.16    1.00
  WS02004139WS02001211 CONDUIT    375.03     0  05:20      0.80    0.47    0.61
  WS02004138WS02004139 CONDUIT    379.33     0  02:40      3.34    0.08    0.44
  WS02003067WS02003066 CONDUIT    806.42     0  03:05      1.52    0.26    0.48
  WS02001213WS02003059 CONDUIT    380.81     0  05:21      0.80    0.63    0.81
  WS02001212WS02001213 CONDUIT    379.30     0  05:21      1.31    0.59    0.50
  WS02001211WS02001212 CONDUIT    379.33     0  05:21      0.77    0.29    0.67
  WS02003072WS02003073 CONDUIT   1107.56     0  03:12      1.83    2.39    0.53
  WS02003069WS02003072 CONDUIT   1107.55     0  03:12      1.71    0.53    0.56
  WS02003060WS02003069 CONDUIT   1107.32     0  03:11      1.94    0.43    0.50
  WS02003059WS02003060 CONDUIT    383.40     0  05:22      0.93    0.25    0.71
  HS02004901HS02004770 CONDUIT     32.24     0  03:01      0.09    0.12    0.50
  HS02004876HS02004881 CONDUIT    119.32     0  03:01      1.17    1.27    0.15
  HS02004870HS02004876 CONDUIT     96.13     0  03:01      0.79    0.06    0.17
  HS02004842HS02004848 CONDUIT     15.11     0  03:01      0.07    0.01    0.33
  HS02004837HS02004842 CONDUIT     16.10     0  03:03      0.41    0.01    0.34
  HS02004830HS02004837 CONDUIT     61.24     0  03:01      0.66    0.06    0.13
  HS02004824HS02004830 CONDUIT     60.79     0  03:01      0.63    0.08    0.15
  HS02004817HS02004824 CONDUIT    117.39     0  03:02      0.30    0.05    0.56
  HS02004770HS02004777 CONDUIT    159.99     0  03:01      0.45    0.29    0.51
  HS02004799HS02004480 CONDUIT    387.38     0  03:01      1.00    0.49    0.56
  HS02004792HS02004799 CONDUIT    353.06     0  03:01      1.12    0.22    0.45
  HS02004788HS02004792 CONDUIT    202.14     0  03:02      1.22    0.13    0.24
  HS02004785HS02004788 CONDUIT    156.68     0  03:02      0.85    1.18    0.26
  HS02004777HS02004785 CONDUIT    157.13     0  03:01      0.53    0.19    0.42
  HS02004480HS02004478 CONDUIT    456.75     0  03:01      1.47    1.92    0.44
  HS02004479HS02004480 CONDUIT     74.07     0  03:02      0.22    0.07    0.53
  HS02004862HS02004870 CONDUIT     73.11     0  03:01      0.77    0.08    0.14
  HS02004848HS02004852 CONDUIT     35.11     0  03:01      0.52    0.04    0.10
  HS02004856HS02004862 CONDUIT     51.23     0  03:01      0.58    0.05    0.13
  HS02004852HS02004856 CONDUIT     35.02     0  03:02      0.32    0.04    0.16
  HS02004802HS02004478 CONDUIT    160.69     0  03:04      0.54    0.14    0.45
  HS02004478WS02006287 CONDUIT    609.83     0  03:02      2.03    0.17    0.33
  HS02004817HS02004807 CONDUIT    120.81     0  03:04      0.24    0.07    0.73
  HS02004807HS02004802 CONDUIT    156.91     0  03:03      0.45    0.30    0.51
  YS02001759YS02001757 CONDUIT    818.80     0  02:57      1.04    0.58    1.00
  YS02001762YS02001759 CONDUIT    409.54     0  02:56      0.52    0.47    1.00
  YS02001765YS02001762 CONDUIT    409.27     0  02:56      0.52    0.38    1.00
  YS02001770YS02001767 CONDUIT    408.60     0  02:56      0.52    1.62    1.00
  YS02001774YS02001770 CONDUIT    286.61     0  03:28      0.36    0.18    1.00
  YS02001779YS02001774 CONDUIT    286.95     0  03:28      0.37    0.14    1.00
  YS02001649YS02001757 CONDUIT   1058.85     0  02:53      1.35    0.64    1.00
  YS02001767YS02001765 CONDUIT    409.25     0  02:56      0.52    0.51    1.00
  YS02006561YS02001783 CONDUIT    969.08     0  03:01      2.14    0.50    1.00
  YS02001783YS02001784 CONDUIT    969.07     0  03:01      1.93    1.34    1.00
  YS02001784YS02001785 CONDUIT    970.12     0  03:01      1.93    2.26    1.00
  YS02001788YS02001790 CONDUIT    970.34     0  03:01      2.32    0.72    1.00
  YS02001790YS02001791 CONDUIT    970.45     0  03:01      2.86    1.06    1.00
  YS02001791YS02001793 CONDUIT    970.51     0  03:00      5.73    0.42    1.00
  YS02001910YS02001907 CONDUIT    551.01     0  02:53      0.70    0.31    1.00
  YS02001786YS02001788 CONDUIT    970.20     0  03:00      2.23    1.87    1.00
  YS02001915YS02001910 CONDUIT    551.10     0  02:53      0.70    0.27    1.00
  YS02001918YS02001915 CONDUIT    289.27     0  02:53      0.44    0.16    1.00
  YS02001923YS02001920 CONDUIT    286.34     0  02:53      0.72    0.13    1.00
  YS02001926YS02001923 CONDUIT    282.24     0  02:53      0.82    0.40    0.98
  YS02001929YS02001926 CONDUIT    232.09     0  02:53      0.87    0.11    0.86
  YS02001920YS02001918 CONDUIT    289.11     0  02:53      0.70    0.28    1.00
  YS02001629YS02163301 CONDUIT    234.53     0  02:51      0.30    0.29    1.00
  YS02001619YS02001622 CONDUIT    338.13     0  03:01      0.60    0.50    1.00
  YS02001622YS02001625 CONDUIT    338.13     0  03:01      0.43    0.18    1.00
  YS02001625YS02001629 CONDUIT    233.88     0  02:51      0.30    0.11    1.00
  YS02163301YS02001633 CONDUIT    234.81     0  02:51      0.30    0.22    1.00
  YS02163601YS02164001 CONDUIT    495.47     0  02:51      0.63    0.44    1.00
  YS02164001YS02001641 CONDUIT    494.95     0  02:51      0.63    0.68    1.00
  YS02001641YS02001644 CONDUIT    494.54     0  02:51      0.63    1.60    1.00
  YS02001647YS02001649 CONDUIT    753.02     0  02:51      0.96    0.40    1.00
  YS02006553YS02006556 CONDUIT    671.88     0  03:32      0.86    0.57    1.00
  YS02006556YS02006558 CONDUIT    672.12     0  03:32      0.86    0.53    1.00
  YSB6556YSB1171       CONDUIT     41.33     0  03:02      0.13    0.04    0.80
  YS02001907YS02006553 CONDUIT    671.91     0  03:32      0.75    0.79    1.00
  YS02006558YS02006561 CONDUIT    969.09     0  03:01      3.43    2.14    1.00
  YS02001633YS02163601 CONDUIT    495.41     0  02:51      0.63    0.52    1.00
  YS02001644YS02001647 CONDUIT    753.16     0  02:51      0.96    0.44    1.00
  YS02001745YS02001748 CONDUIT    612.20     0  02:47      1.48    0.24    0.94
  YS02001748YS02001751 CONDUIT    399.64     0  03:01      1.03    0.20    1.00
  YS02001751YS02001754 CONDUIT    399.70     0  03:01      0.84    0.19    1.00
  YS02001754YS02001757 CONDUIT    399.73     0  03:01      0.51    0.16    1.00
  YS02001882YS02001884 CONDUIT     61.14     0  02:47      0.08    0.07    1.00
  YS02001884YS02001887 CONDUIT     87.68     0  02:46      0.11    0.12    1.00
  YS02001890YS02001895 CONDUIT    516.99     0  03:08      0.66    0.24    1.00
  YS02001895YS02001898 CONDUIT    516.91     0  03:08      0.66    0.90    1.00
  YS02001898YS02001901 CONDUIT    517.00     0  03:08      0.66    0.33    1.00
  YS02001901YS02001904 CONDUIT    516.98     0  03:08      0.66    0.80    1.00
  YS02001904YS02001907 CONDUIT    516.94     0  03:08      0.66    0.18    1.00
  YS02001887YS02001890 CONDUIT    623.12     0  03:01      0.79    1.07    1.00
  YS02001652YS02001649 CONDUIT    491.56     0  03:01      0.63    0.24    1.00
  YS02001655YS02001652 CONDUIT    491.13     0  03:01      0.89    0.24    1.00
  YS02001658YS02001655 CONDUIT    491.06     0  03:01      1.18    0.21    1.00
  YS02001661YS02001658 CONDUIT    508.84     0  03:00      1.56    0.20    1.00
  YS02001664YS02001661 CONDUIT    764.62     0  03:02      1.66    0.24    0.71
  YSB1154YSB6556       CONDUIT     41.77     0  03:01      0.19    0.08    0.69
  YSB1174YSB1171       CONDUIT     34.49     0  03:01      0.10    0.05    0.81
  YSB1171HS02004479    CONDUIT     72.19     0  03:02      0.54    0.05    0.65
  HS02004881HS02006253 CONDUIT    131.62     0  03:01      1.56    0.03    0.38
  YS02001793JiankangQianchi CONDUIT    970.53     0  03:00     13.53    0.08    1.00
  YS02001757CaochengTiaoxuchi CONDUIT   2078.15     0  02:54      3.06    0.91    1.00
  WSF200WS02003060     CONDUIT    805.69     0  03:05      1.99    0.18    0.40
  1                    CONDUIT   1109.35     0  03:13      3.42    0.39    0.43
  2                    CONDUIT    326.52     0  03:00      6.53    0.78    0.67
  3                    CONDUIT    597.65     0  00:00     10.05    0.95    0.86
  4                    CONDUIT      0.00     0  00:00      0.00    0.00    0.00
  CC-Pump-1            PUMP       200.00     0  02:06              1.00
  CC-Pump-2            PUMP       200.00     0  02:10              1.00
  JK-Pump-1            PUMP       300.00     0  00:00              1.00
  JK-Pump-2            PUMP       300.00     0  00:00              1.00
  XR-Pump-1            PUMP        95.00     0  00:00              1.00
  XR-Pump-2            PUMP        95.00     0  00:00              1.00
  XR-Pump-3            PUMP        95.00     0  00:00              1.00
  XR-Pump-4            PUMP        95.00     0  00:20              1.00
  
  
  ***************************
  Flow Classification Summary
  ***************************
  
  -------------------------------------------------------------------------------------
                      Adjusted    ---------- Fraction of Time in Flow Class ---------- 
                       /Actual         Up    Down  Sub   Sup   Up    Down  Norm  Inlet 
  Conduit               Length    Dry  Dry   Dry   Crit  Crit  Crit  Crit  Ltd   Ctrl  
  -------------------------------------------------------------------------------------
  WS02003066WSF200        1.00   0.05  0.01  0.00  0.00  0.94  0.00  0.00  0.57  0.00
  WS02006287WS02006284    1.00   0.03  0.01  0.00  0.59  0.37  0.00  0.00  0.67  0.00
  WS02006284WS02006280    1.00   0.04  0.00  0.00  0.00  0.00  0.00  0.96  0.00  0.00
  WS02006280WS02006229    1.00   0.04  0.00  0.00  0.00  0.00  0.00  0.96  0.00  0.00
  WS02006229WS02006228    1.00   0.00  0.00  0.00  0.99  0.00  0.00  0.01  0.00  0.00
  WS02006256WS02006235    1.00   0.00  0.00  0.00  1.00  0.00  0.00  0.00  0.00  0.00
  WS02006253WS02006251    1.00   0.02  0.01  0.00  0.97  0.00  0.00  0.00  0.00  0.00
  WS02006252WS02006251    1.00   0.07  0.00  0.00  0.00  0.00  0.93  0.00  0.00  0.00
  WS02006251WS02006249    1.00   0.00  0.00  0.00  1.00  0.00  0.00  0.00  0.24  0.00
  WS02006249WS02006248    1.00   0.00  0.02  0.00  0.91  0.00  0.07  0.00  0.00  0.00
  WS02006248WS02006247    1.00   0.02  0.00  0.00  0.97  0.00  0.00  0.01  0.13  0.00
  WS02006247WS02006245    1.00   0.02  0.00  0.00  0.97  0.00  0.00  0.02  0.00  0.00
  WS02006245WS02006243    1.00   0.01  0.00  0.00  0.95  0.00  0.00  0.04  0.01  0.00
  WS02006243WS02006242    1.00   0.01  0.00  0.00  0.99  0.00  0.00  0.00  0.21  0.00
  WS02006242WS02006240    1.00   0.00  0.00  0.00  1.00  0.00  0.00  0.00  0.00  0.00
  WS02006240WS02006239    1.00   0.00  0.00  0.00  0.96  0.00  0.00  0.03  0.02  0.00
  WS02006239WS02006238    1.00   0.00  0.00  0.00  1.00  0.00  0.00  0.00  0.02  0.00
  WS02006238WS02006235    1.00   0.00  0.00  0.00  1.00  0.00  0.00  0.00  0.00  0.00
  WS02006235WS02006234    1.00   0.00  0.00  0.00  0.96  0.00  0.04  0.00  0.00  0.00
  WS02006234WS02006232    1.00   0.00  0.00  0.00  1.00  0.00  0.00  0.00  0.02  0.00
  WS02006232WS02006231    1.00   0.00  0.00  0.00  0.99  0.00  0.01  0.00  0.00  0.00
  WS02006231WS02006230    1.00   0.00  0.00  0.00  0.65  0.00  0.35  0.00  0.00  0.00
  WS02006230WS02006229    1.00   0.00  0.00  0.00  0.98  0.00  0.00  0.02  0.01  0.00
  WS02006228WS02006109    1.00   0.00  0.00  0.00  1.00  0.00  0.00  0.00  0.00  0.00
  WS02006116WS02004401    1.00   0.02  0.00  0.00  0.98  0.00  0.00  0.00  0.00  0.00
  WS02006115WS02006116    1.00   0.02  0.00  0.00  0.97  0.00  0.00  0.01  0.01  0.00
  WS02006113WS02006111    1.00   0.02  0.00  0.00  0.03  0.95  0.00  0.00  0.10  0.00
  WS02006112WS02006115    1.00   0.02  0.00  0.00  0.98  0.00  0.00  0.00  0.00  0.00
  WS02006111WS02006112    1.00   0.02  0.00  0.00  0.98  0.00  0.00  0.00  0.88  0.00
  WS02006110WS02006113    1.00   0.01  0.00  0.00  0.98  0.00  0.00  0.00  0.00  0.00
  WS02006109WS02006110    1.00   0.00  0.01  0.00  0.98  0.00  0.00  0.00  0.00  0.00
  WS02004411WS02004412    1.00   0.04  0.00  0.00  0.96  0.00  0.00  0.00  0.00  0.00
  WS02004401WS02004402    1.00   0.02  0.00  0.00  0.98  0.00  0.00  0.00  0.00  0.00
  WS02004413WS02003067    1.00   0.05  0.01  0.00  0.00  0.00  0.94  0.00  0.00  0.00
  WS02004412WS02004413    1.00   0.04  0.00  0.00  0.96  0.00  0.00  0.00  0.01  0.00
  WS02004410WS02004411    1.00   0.04  0.00  0.00  0.96  0.00  0.00  0.00  0.00  0.00
  WS02004409WS02004410    1.00   0.04  0.00  0.00  0.96  0.00  0.00  0.00  0.00  0.00
  WS02004407WS02004409    1.00   0.04  0.00  0.00  0.95  0.00  0.00  0.00  0.80  0.00
  WS02004406WS02004407    1.00   0.00  0.04  0.00  0.96  0.00  0.00  0.00  0.00  0.00
  WS02004405WS02004406    1.00   0.00  0.00  0.00  1.00  0.00  0.00  0.00  0.02  0.00
  WS02004404WS02004405    1.00   0.00  0.00  0.00  1.00  0.00  0.00  0.00  0.00  0.00
  WS02004403WS02004404    1.00   0.00  0.02  0.00  0.98  0.00  0.00  0.00  0.02  0.00
  WS02004402WS02004403    1.00   0.02  0.00  0.00  0.98  0.00  0.00  0.00  0.00  0.00
  WS02004139WS02001211    1.00   0.00  0.00  0.00  0.99  0.00  0.01  0.00  0.00  0.00
  WS02004138WS02004139    1.00   0.00  0.00  0.00  0.99  0.01  0.00  0.00  1.00  0.00
  WS02003067WS02003066    1.00   0.06  0.00  0.00  0.94  0.00  0.00  0.00  0.00  0.00
  WS02001213WS02003059    1.00   0.00  0.00  0.00  0.99  0.00  0.00  0.00  0.00  0.00
  WS02001212WS02001213    1.00   0.00  0.00  0.00  0.91  0.00  0.08  0.00  0.00  0.00
  WS02001211WS02001212    1.00   0.00  0.00  0.00  1.00  0.00  0.00  0.00  0.00  0.00
  WS02003072WS02003073    1.00   0.00  0.00  0.00  0.00  0.00  0.00  1.00  0.00  0.00
  WS02003069WS02003072    1.00   0.00  0.00  0.00  0.99  0.01  0.00  0.00  0.26  0.00
  WS02003060WS02003069    1.00   0.00  0.00  0.00  0.99  0.01  0.00  0.00  0.13  0.00
  WS02003059WS02003060    1.00   0.00  0.00  0.00  0.99  0.01  0.00  0.00  0.01  0.00
  HS02004901HS02004770    1.00   0.03  0.00  0.00  0.97  0.00  0.00  0.00  0.01  0.00
  HS02004876HS02004881    1.00   0.02  0.00  0.00  0.87  0.11  0.00  0.00  0.00  0.00
  HS02004870HS02004876    1.00   0.01  0.00  0.00  0.99  0.00  0.00  0.00  0.95  0.00
  HS02004842HS02004848    1.00   0.00  0.03  0.00  0.97  0.00  0.00  0.00  0.58  0.00
  HS02004837HS02004842    1.00   0.00  0.00  0.00  0.99  0.01  0.00  0.00  0.11  0.00
  HS02004830HS02004837    1.00   0.00  0.00  0.00  1.00  0.00  0.00  0.00  0.99  0.00
  HS02004824HS02004830    1.00   0.00  0.00  0.00  1.00  0.00  0.00  0.00  0.01  0.00
  HS02004817HS02004824    1.00   0.00  0.00  0.00  1.00  0.00  0.00  0.00  0.98  0.00
  HS02004770HS02004777    1.00   0.00  0.03  0.00  0.97  0.00  0.00  0.00  0.04  0.00
  HS02004799HS02004480    1.00   0.00  0.02  0.00  0.96  0.00  0.02  0.00  0.00  0.00
  HS02004792HS02004799    1.00   0.00  0.00  0.00  0.99  0.01  0.00  0.00  0.98  0.00
  HS02004788HS02004792    1.00   0.00  0.00  0.00  0.99  0.01  0.00  0.00  0.98  0.00
  HS02004785HS02004788    1.00   0.00  0.00  0.00  1.00  0.00  0.00  0.00  0.00  0.00
  HS02004777HS02004785    1.00   0.00  0.00  0.00  1.00  0.00  0.00  0.00  0.15  0.00
  HS02004480HS02004478    1.00   0.04  0.00  0.00  0.67  0.00  0.00  0.30  0.00  0.00
  HS02004479HS02004480    1.00   0.02  0.00  0.00  0.98  0.00  0.00  0.00  0.13  0.00
  HS02004862HS02004870    1.00   0.00  0.00  0.00  1.00  0.00  0.00  0.00  0.06  0.00
  HS02004848HS02004852    1.00   0.03  0.00  0.00  0.97  0.00  0.00  0.00  0.64  0.00
  HS02004856HS02004862    1.00   0.00  0.05  0.00  0.95  0.00  0.00  0.00  0.79  0.00
  HS02004852HS02004856    1.00   0.03  0.00  0.00  0.96  0.00  0.00  0.00  0.81  0.00
  HS02004802HS02004478    1.00   0.04  0.00  0.00  0.96  0.00  0.00  0.00  0.03  0.00
  HS02004478WS02006287    1.00   0.04  0.00  0.00  0.73  0.23  0.00  0.00  0.66  0.00
  HS02004817HS02004807    1.00   0.00  0.03  0.00  0.97  0.00  0.00  0.00  0.01  0.00
  HS02004807HS02004802    1.00   0.03  0.00  0.00  0.96  0.00  0.00  0.00  0.00  0.00
  YS02001759YS02001757    1.00   0.00  0.00  0.00  1.00  0.00  0.00  0.00  0.17  0.00
  YS02001762YS02001759    1.00   0.00  0.00  0.00  1.00  0.00  0.00  0.00  0.04  0.00
  YS02001765YS02001762    1.00   0.00  0.00  0.00  1.00  0.00  0.00  0.00  0.17  0.00
  YS02001770YS02001767    1.00   0.00  0.00  0.00  1.00  0.00  0.00  0.00  0.00  0.00
  YS02001774YS02001770    1.00   0.00  0.03  0.00  0.96  0.00  0.00  0.00  0.04  0.00
  YS02001779YS02001774    1.00   0.00  0.00  0.00  1.00  0.00  0.00  0.00  0.22  0.00
  YS02001649YS02001757    1.00   0.00  0.00  0.00  1.00  0.00  0.00  0.00  0.17  0.00
  YS02001767YS02001765    1.00   0.00  0.00  0.00  1.00  0.00  0.00  0.00  0.01  0.00
  YS02006561YS02001783    1.00   0.05  0.00  0.00  0.35  0.60  0.00  0.00  0.49  0.00
  YS02001783YS02001784    1.00   0.00  0.05  0.00  0.95  0.00  0.00  0.00  0.01  0.00
  YS02001784YS02001785    1.00   0.00  0.00  0.00  1.00  0.00  0.00  0.00  0.21  0.00
  YS02001788YS02001790    1.00   0.00  0.00  0.00  0.41  0.59  0.00  0.00  0.47  0.00
  YS02001790YS02001791    1.00   0.00  0.00  0.00  0.39  0.61  0.00  0.00  0.46  0.00
  YS02001791YS02001793    1.00   0.00  0.00  0.00  0.40  0.60  0.00  0.00  0.02  0.00
  YS02001910YS02001907    1.00   0.00  0.00  0.00  0.98  0.00  0.00  0.02  0.13  0.00
  YS02001786YS02001788    1.00   0.00  0.00  0.00  0.39  0.61  0.00  0.00  0.00  0.00
  YS02001915YS02001910    1.00   0.00  0.00  0.00  0.99  0.01  0.00  0.00  0.19  0.00
  YS02001918YS02001915    1.00   0.00  0.01  0.00  0.99  0.00  0.00  0.00  0.56  0.00
  YS02001923YS02001920    1.00   0.00  0.00  0.00  1.00  0.00  0.00  0.00  0.83  0.00
  YS02001926YS02001923    1.00   0.00  0.03  0.00  0.19  0.00  0.78  0.00  0.00  0.00
  YS02001929YS02001926    1.00   0.00  0.03  0.00  0.97  0.00  0.00  0.00  0.75  0.00
  YS02001920YS02001918    1.00   0.00  0.01  0.00  0.99  0.00  0.00  0.00  0.00  0.00
  YS02001629YS02163301    1.00   0.04  0.00  0.00  0.96  0.00  0.00  0.00  0.00  0.00
  YS02001619YS02001622    1.00   0.03  0.00  0.00  0.97  0.00  0.00  0.00  0.00  0.00
  YS02001622YS02001625    1.00   0.03  0.00  0.00  0.97  0.00  0.00  0.00  0.08  0.00
  YS02001625YS02001629    1.00   0.03  0.02  0.00  0.93  0.00  0.02  0.00  0.00  0.00
  YS02163301YS02001633    1.00   0.00  0.04  0.00  0.96  0.00  0.00  0.00  0.00  0.00
  YS02163601YS02164001    1.00   0.00  0.03  0.00  0.97  0.00  0.00  0.00  0.00  0.00
  YS02164001YS02001641    1.00   0.01  0.02  0.00  0.97  0.00  0.00  0.00  0.06  0.00
  YS02001641YS02001644    1.00   0.00  0.01  0.00  0.99  0.00  0.00  0.00  0.00  0.00
  YS02001647YS02001649    1.00   0.00  0.05  0.00  0.95  0.00  0.00  0.00  0.01  0.00
  YS02006553YS02006556    1.00   0.02  0.00  0.00  0.98  0.00  0.00  0.00  0.03  0.00
  YS02006556YS02006558    1.00   0.00  0.00  0.00  1.00  0.00  0.00  0.00  0.00  0.00
  YSB6556YSB1171          1.00   0.02  0.01  0.00  0.97  0.00  0.00  0.00  0.00  0.00
  YS02001907YS02006553    1.00   0.00  0.01  0.00  0.98  0.00  0.00  0.00  0.00  0.00
  YS02006558YS02006561    1.00   0.05  0.00  0.00  0.22  0.73  0.00  0.00  0.44  0.00
  YS02001633YS02163601    1.00   0.00  0.01  0.00  0.99  0.00  0.00  0.00  0.16  0.00
  YS02001644YS02001647    1.00   0.00  0.05  0.00  0.95  0.00  0.00  0.00  0.00  0.00
  YS02001745YS02001748    1.00   0.00  0.00  0.00  0.90  0.01  0.00  0.09  0.05  0.00
  YS02001748YS02001751    1.00   0.00  0.00  0.00  0.97  0.03  0.00  0.00  0.15  0.00
  YS02001751YS02001754    1.00   0.00  0.00  0.00  0.95  0.00  0.00  0.05  0.02  0.00
  YS02001754YS02001757    1.00   0.00  0.00  0.00  0.99  0.01  0.00  0.00  0.21  0.00
  YS02001882YS02001884    1.00   0.04  0.00  0.00  0.96  0.00  0.00  0.00  0.00  0.00
  YS02001884YS02001887    1.00   0.02  0.01  0.00  0.97  0.00  0.00  0.00  0.00  0.00
  YS02001890YS02001895    1.00   0.00  0.04  0.00  0.96  0.00  0.00  0.00  0.00  0.00
  YS02001895YS02001898    1.00   0.04  0.00  0.00  0.95  0.00  0.01  0.00  0.00  0.00
  YS02001898YS02001901    1.00   0.04  0.00  0.00  0.96  0.00  0.00  0.00  0.03  0.00
  YS02001901YS02001904    1.00   0.04  0.00  0.00  0.96  0.00  0.00  0.00  0.00  0.00
  YS02001904YS02001907    1.00   0.00  0.04  0.00  0.96  0.00  0.00  0.00  0.00  0.00
  YS02001887YS02001890    1.00   0.00  0.00  0.00  0.98  0.00  0.01  0.00  0.00  0.00
  YS02001652YS02001649    1.00   0.00  0.00  0.00  1.00  0.00  0.00  0.00  0.19  0.00
  YS02001655YS02001652    1.00   0.00  0.00  0.00  0.95  0.00  0.00  0.05  0.03  0.00
  YS02001658YS02001655    1.00   0.00  0.04  0.00  0.93  0.03  0.00  0.00  0.13  0.00
  YS02001661YS02001658    1.00   0.04  0.00  0.00  0.90  0.06  0.00  0.00  0.09  0.00
  YS02001664YS02001661    1.00   0.03  0.00  0.00  0.87  0.10  0.00  0.00  0.23  0.00
  YSB1154YSB6556          1.00   0.03  0.00  0.00  0.97  0.00  0.00  0.00  0.02  0.00
  YSB1174YSB1171          1.00   0.02  0.01  0.00  0.97  0.00  0.00  0.00  0.00  0.00
  YSB1171HS02004479       1.00   0.02  0.00  0.00  0.98  0.00  0.00  0.00  0.11  0.00
  HS02004881HS02006253    1.00   0.02  0.00  0.00  0.80  0.01  0.00  0.17  0.62  0.00
  YS02001793JiankangQianchi    1.00   0.00  0.00  0.00  0.69  0.31  0.00  0.00  0.25  0.00
  YS02001757CaochengTiaoxuchi    1.00   0.00  0.07  0.00  0.85  0.09  0.00  0.00  0.00  0.00
  WSF200WS02003060        1.00   0.00  0.05  0.00  0.56  0.39  0.00  0.00  0.27  0.00
  1                       1.00   0.00  0.00  0.00  0.00  1.00  0.00  0.00  0.38  0.00
  2                       1.00   0.49  0.00  0.00  0.00  0.51  0.00  0.00  0.08  0.00
  3                       1.00   0.11  0.00  0.00  0.00  0.89  0.00  0.00  0.08  0.00
  4                       1.00   1.00  0.00  0.00  0.00  0.00  0.00  0.00  0.00  0.00
  
  
  *************************
  Conduit Surcharge Summary
  *************************
  
  ----------------------------------------------------------------------------
                                                           Hours        Hours 
                         --------- Hours Full --------   Above Full   Capacity
  Conduit                Both Ends  Upstream  Dnstream   Normal Flow   Limited
  ----------------------------------------------------------------------------
  WS02006229WS02006228        2.36      2.65      2.36      4.64         2.36
  WS02006256WS02006235        5.97      5.97      7.54      2.92         0.01
  WS02006253WS02006251        0.34      0.34      0.76      0.01         0.01
  WS02006252WS02006251        1.83      1.83      2.98      2.68         0.01
  WS02006251WS02006249        0.01      0.45      0.01      1.90         0.01
  WS02006249WS02006248        0.01      0.01      0.01      4.49         0.01
  WS02006248WS02006247        0.02      0.02      0.64      0.01         0.01
  WS02006247WS02006245        0.52      0.75      0.52      4.93         0.52
  WS02006245WS02006243        0.70      0.70      0.90      0.08         0.01
  WS02006243WS02006242        0.95      0.95      1.93      0.01         0.01
  WS02006242WS02006240        1.30      1.30      2.35      2.53         0.01
  WS02006240WS02006239        1.56      1.56      1.70      0.05         0.01
  WS02006239WS02006238        2.19      2.19      2.35      0.06         0.01
  WS02006238WS02006235        2.17      2.17      2.68      0.01         0.01
  WS02006235WS02006234        1.40      1.40      2.02      6.00         0.01
  WS02006234WS02006232        1.70      1.70      2.76      0.01         0.01
  WS02006232WS02006231        1.00      1.00      2.76      0.01         0.01
  WS02006231WS02006230        0.84      0.84      1.06      5.96         0.01
  WS02006230WS02006229        3.50      4.29      3.50      6.04         3.50
  WS02006228WS02006109        2.51      3.08      2.51      5.50         2.51
  WS02006116WS02004401        0.32      0.32      0.33      0.23         0.24
  WS02006115WS02006116        0.15      0.15      0.16      0.10         0.10
  WS02006112WS02006115        0.13      0.13      1.33      0.01         0.01
  WS02006111WS02006112        0.01      0.01      4.80      0.01         0.01
  WS02006110WS02006113        0.01      0.01      2.85      0.01         0.01
  WS02006109WS02006110        1.14      1.14      3.09      1.15         0.01
  WS02004411WS02004412        0.01      0.01      0.01      0.29         0.01
  WS02004401WS02004402        0.33      0.33      0.39      0.01         0.01
  WS02004410WS02004411        0.01      0.01      0.01      0.22         0.01
  WS02004409WS02004410        0.01      0.01      0.01      0.11         0.01
  WS02004406WS02004407        0.01      0.01      0.68      0.01         0.01
  WS02004405WS02004406        0.68      0.78      0.68      1.20         0.68
  WS02004404WS02004405        0.78      0.86      0.78      5.90         0.78
  WS02004403WS02004404        0.39      0.39      0.86      0.01         0.01
  WS02004402WS02004403        0.39      0.39      0.39      0.31         0.31
  WS02003072WS02003073        0.01      0.01      0.01      5.45         0.01
  HS02004876HS02004881        0.01      0.01      0.01      0.17         0.01
  HS02004785HS02004788        0.01      0.01      0.01      0.10         0.01
  HS02004480HS02004478        0.01      0.01      0.01      0.52         0.01
  YS02001759YS02001757        5.54      5.54      5.62      0.01         0.01
  YS02001762YS02001759        5.51      5.51      5.54      0.01         0.01
  YS02001765YS02001762        5.48      5.48      5.51      0.01         0.01
  YS02001770YS02001767        5.42      5.43      5.44      0.40         0.80
  YS02001774YS02001770        5.32      5.32      5.50      0.01         0.01
  YS02001779YS02001774        5.21      5.21      5.50      0.01         0.01
  YS02001649YS02001757        5.52      5.52      5.62      0.01         0.01
  YS02001767YS02001765        5.44      5.44      5.48      0.01         0.01
  YS02006561YS02001783        0.90      0.90      1.40      0.01         0.01
  YS02001783YS02001784        1.40      1.40      1.49      1.35         1.22
  YS02001784YS02001785        1.41      1.49      1.41      2.21         1.40
  YS02001788YS02001790        1.40      1.40      1.94      0.01         0.01
  YS02001790YS02001791        1.94      1.94      2.01      0.75         0.74
  YS02001791YS02001793        2.01      2.01      2.25      0.01         0.01
  YS02001910YS02001907        1.20      1.20      1.67      0.01         0.01
  YS02001786YS02001788        1.40      1.41      1.40      1.84         1.40
  YS02001915YS02001910        1.01      1.01      1.20      0.01         0.01
  YS02001918YS02001915        0.78      0.78      1.01      0.01         0.01
  YS02001923YS02001920        0.60      0.60      0.82      0.01         0.01
  YS02001926YS02001923        0.01      0.01      0.01      0.01         0.01
  YS02001929YS02001926        0.01      0.01      0.01      0.01         0.01
  YS02001920YS02001918        0.78      0.78      0.82      0.01         0.01
  YS02001629YS02163301        5.33      5.33      5.43      0.01         0.01
  YS02001619YS02001622        5.12      5.12      5.14      0.01         0.01
  YS02001622YS02001625        5.14      5.14      5.28      0.01         0.01
  YS02001625YS02001629        5.12      5.12      5.28      0.01         0.01
  YS02163301YS02001633        5.43      5.43      5.49      0.01         0.01
  YS02163601YS02164001        5.49      5.49      5.52      0.01         0.01
  YS02164001YS02001641        5.49      5.49      5.50      0.01         0.02
  YS02001641YS02001644        5.50      5.50      5.50      1.45         1.47
  YS02001647YS02001649        5.26      5.26      5.52      0.01         0.01
  YS02006553YS02006556        1.42      1.42      1.72      0.01         0.01
  YS02006556YS02006558        1.55      1.55      1.79      0.01         0.01
  YS02001907YS02006553        2.23      2.23      2.45      0.01         0.01
  YS02006558YS02006561        1.11      1.38      1.11      2.09         1.11
  YS02001633YS02163601        5.48      5.48      5.52      0.01         0.01
  YS02001644YS02001647        5.26      5.26      5.50      0.01         0.01
  YS02001745YS02001748        0.01      0.01      4.99      0.01         0.01
  YS02001748YS02001751        5.02      5.02      5.10      0.01         0.01
  YS02001751YS02001754        5.10      5.10      5.21      0.01         0.01
  YS02001754YS02001757        5.24      5.24      5.62      0.01         0.01
  YS02001882YS02001884        1.02      1.02      1.05      0.01         0.01
  YS02001884YS02001887        1.11      1.11      1.13      0.01         0.01
  YS02001890YS02001895        1.00      1.00      1.22      0.01         0.01
  YS02001895YS02001898        0.98      0.98      1.00      0.01         0.01
  YS02001898YS02001901        1.01      1.01      1.10      0.01         0.01
  YS02001901YS02001904        1.08      1.08      1.10      0.01         0.01
  YS02001904YS02001907        1.08      1.08      1.75      0.01         0.01
  YS02001887YS02001890        1.16      1.16      1.18      0.07         0.01
  YS02001652YS02001649        5.26      5.26      5.52      0.01         0.01
  YS02001655YS02001652        5.13      5.13      5.24      0.01         0.01
  YS02001658YS02001655        5.01      5.01      5.13      0.01         0.01
  YS02001661YS02001658        0.22      0.22      5.01      0.01         0.01
  YS02001664YS02001661        0.01      0.01      1.17      0.01         0.01
  YS02001793JiankangQianchi        2.19      2.19      4.01      0.01         0.01
  YS02001757CaochengTiaoxuchi        4.74      4.74      5.62      0.01         0.01
  3                           0.01      0.01      0.01      0.01         0.01
  
  
  ***************
  Pumping Summary
  ***************
  
  ---------------------------------------------------------------------------------------------------------
                                                  Min       Avg       Max     Total     Power    % Time Off
                        Percent   Number of      Flow      Flow      Flow    Volume     Usage    Pump Curve
  Pump                 Utilized   Start-Ups       LPS       LPS       LPS  10^6 ltr     Kw-hr    Low   High
  ---------------------------------------------------------------------------------------------------------
  CC-Pump-1               68.02           5      0.00    151.14    200.00     2.842      5.11    0.0   13.3
  CC-Pump-2               61.64           4      0.00    146.98    200.00     2.519      4.86    0.0   14.6
  JK-Pump-1               82.97           6      0.00    176.33    300.00     3.158     34.41    0.0    0.0
  JK-Pump-2               89.36           6      0.00    206.39    300.00     3.944     40.06    0.0    0.0
  XR-Pump-1               78.71           7      0.00     76.00     95.00     1.625     12.16    0.0    0.0
  XR-Pump-2               82.97           7      0.00     72.71     95.00     1.739     15.98    0.0    0.0
  XR-Pump-3               80.85           8      0.00     59.22     95.00     1.397     12.77    0.0    0.0
  XR-Pump-4               89.33          10      0.00     59.62     95.00     1.539     13.01    0.0    0.0
  

  Analysis begun on:  Wed Dec 22 18:54:33 2021
  Analysis ended on:  Wed Dec 22 18:54:38 2021
  Total elapsed time: 00:00:05