
  EPA STORM WATER MANAGEMENT MODEL - VERSION 5.1 (Build 5.3.0.dev0)
  --------------------------------------------------------------

  WARNING 04: minimum elevation drop used for Conduit WS02004404WS02004405
  WARNING 03: negative offset ignored for Link YS02001904YS02001907
  
  *********************************************************
  NOTE: The summary statistics displayed in this report are
  based on results found at every computational time step,  
  not just on results from each reporting time step.
  *********************************************************
  
  ****************
  Analysis Options
  ****************
  Flow Units ............... LPS
  Process Models:
    Rainfall/Runoff ........ YES
    RDII ................... NO
    Snowmelt ............... NO
    Groundwater ............ NO
    Flow Routing ........... YES
    Ponding Allowed ........ NO
    Water Quality .......... NO
  Infiltration Method ...... HORTON
  Flow Routing Method ...... DYNWAVE
  Surcharge Method ......... EXTRAN
  Starting Date ............ 08/28/2015 08:00:00
  Ending Date .............. 08/28/2015 15:50:00
  Antecedent Dry Days ...... 8.0
  Report Time Step ......... 00:01:00
  Wet Time Step ............ 00:01:00
  Dry Time Step ............ 00:01:00
  Routing Time Step ........ 5.00 sec
  Variable Time Step ....... YES
  Maximum Trials ........... 8
  Number of Threads ........ 4
  Head Tolerance ........... 0.001500 m
  
  
  **************************        Volume         Depth
  Runoff Quantity Continuity     hectare-m            mm
  **************************     ---------       -------
  Total Precipitation ......         6.144        13.452
  Evaporation Loss .........         0.000         0.000
  Infiltration Loss ........         1.572         3.442
  Surface Runoff ...........         3.480         7.619
  Final Storage ............         1.093         2.393
  Continuity Error (%) .....        -0.016
  
  
  **************************        Volume        Volume
  Flow Routing Continuity        hectare-m      10^6 ltr
  **************************     ---------     ---------
  Dry Weather Inflow .......         0.616         6.165
  Wet Weather Inflow .......         3.479        34.790
  Groundwater Inflow .......         0.000         0.000
  RDII Inflow ..............         0.000         0.000
  External Inflow ..........         0.102         1.024
  External Outflow .........         2.173        21.726
  Flooding Loss ............         1.546        15.457
  Evaporation Loss .........         0.000         0.000
  Exfiltration Loss ........         0.000         0.000
  Initial Stored Volume ....         0.076         0.761
  Final Stored Volume ......         0.648         6.478
  Continuity Error (%) .....        -2.158
  
  
  *************************
  Highest Continuity Errors
  *************************
  Node HS02004842 (15.27%)
  Node YS02001884 (11.37%)
  Node JK-storage (-8.97%)
  Node YSB1171 (2.79%)
  Node HS02004817 (2.78%)
  
  
  ***************************
  Time-Step Critical Elements
  ***************************
  Link 3 (50.37%)
  Link WS02006252WS02006251 (40.80%)
  Link WS02006238WS02006235 (2.83%)
  Link WS02006280WS02006229 (1.39%)
  
  
  ********************************
  Highest Flow Instability Indexes
  ********************************
  Link YS02163601YS02164001 (37)
  Link YS02163301YS02001633 (35)
  Link YS02001629YS02163301 (34)
  Link WS02006113WS02006111 (34)
  Link YS02001619YS02001622 (34)
  
  
  *************************
  Routing Time Step Summary
  *************************
  Minimum Time Step           :     0.27 sec
  Average Time Step           :     0.78 sec
  Maximum Time Step           :     5.00 sec
  Percent in Steady State     :    -0.00
  Average Iterations per Step :     4.36
  Percent Not Converging      :    18.94
  
  
  ***************************
  Subcatchment Runoff Summary
  ***************************
  
  ------------------------------------------------------------------------------------------------------------------------------
                            Total      Total      Total      Total     Imperv       Perv      Total       Total     Peak  Runoff
                           Precip      Runon       Evap      Infil     Runoff     Runoff     Runoff      Runoff   Runoff   Coeff
  Subcatchment                 mm         mm         mm         mm         mm         mm         mm    10^6 ltr      LPS
  ------------------------------------------------------------------------------------------------------------------------------
  sub0                      13.45       0.00       0.00       0.89      11.25       0.05      11.30        0.01     3.67   0.840
  sub1                      13.45       0.00       0.00       1.45      10.71       0.03      10.74        0.07    24.31   0.799
  sub2                      13.45       0.00       0.00       4.95       7.56       0.02       7.58        0.07    22.93   0.564
  sub3                      13.45       0.00       0.00       4.96       7.52       0.02       7.54        0.17    51.30   0.560
  sub4                      13.45       0.00       0.00       1.46      10.54       0.02      10.56        0.22    61.94   0.785
  sub5                      13.45       0.00       0.00       0.91      11.19       0.03      11.22        0.13    43.21   0.834
  sub7                      13.45       0.00       0.00       1.17      10.98       0.04      11.03        0.04    13.69   0.820
  sub8                      13.45       0.00       0.00       1.17      10.97       0.04      11.01        0.07    25.15   0.819
  sub9                      13.45       0.00       0.00       1.17      10.97       0.04      11.01        0.05    18.81   0.818
  sub10                     13.45       0.00       0.00       1.04      11.08       0.03      11.11        0.12    42.29   0.826
  sub11                     13.45       0.00       0.00       1.04      11.10       0.04      11.14        0.13    46.68   0.828
  sub12                     13.45       0.00       0.00       1.69      10.51       0.06      10.58        0.09    35.94   0.786
  sub14                     13.45       0.00       0.00       1.17      10.97       0.04      11.01        0.10    37.02   0.818
  sub15                     13.45       0.00       0.00       4.00       8.43       0.04       8.47        0.15    51.03   0.630
  sub16                     13.45       0.00       0.00       4.38       8.09       0.06       8.15        0.09    32.58   0.606
  sub17                     13.45       0.00       0.00       4.25       8.21       0.06       8.27        0.07    26.73   0.615
  sub22                     13.45       0.00       0.00       5.74       6.88       0.04       6.92        0.44   159.06   0.514
  sub23                     13.45       0.00       0.00       4.93       7.60       0.05       7.65        0.36   133.95   0.569
  sub60                     13.45       0.00       0.00       1.61       8.73       0.00       8.74        2.65   387.96   0.649
  sub61                     13.45       0.00       0.00       2.28       8.88       0.00       8.88        2.74   483.52   0.660
  sub62                     13.45       0.00       0.00       1.07       9.65       0.00       9.66        2.97   496.42   0.718
  sub63                     13.45       0.00       0.00       3.90       7.77       0.00       7.77        2.35   446.68   0.578
  sub64                     13.45       0.00       0.00       2.01       8.38       0.00       8.38        2.55   368.35   0.623
  sub65                     13.45       0.00       0.00       1.75       8.52       0.00       8.52        2.62   373.60   0.634
  sub66                     13.45       0.00       0.00       3.90       7.19       0.00       7.19        2.21   337.96   0.535
  sub67                     13.45       0.00       0.00       1.07      10.19       0.01      10.19        3.15   622.58   0.758
  sub68                     13.45       0.00       0.00       1.88       9.34       0.01       9.34        2.87   531.38   0.694
  sub69                     13.45       0.00       0.00       2.01       9.68       0.01       9.69        2.26   503.32   0.720
  sub70                     13.45       9.89       0.00       7.67      12.93       0.26      13.20        3.02   423.72   0.565
  sub71                     13.45       0.00       0.00       1.07       9.40       0.00       9.40        2.22   347.35   0.699
  sub72                     13.45       0.00       0.00       0.94       7.49       0.00       7.50        1.53   163.23   0.557
  sub73                     13.45      12.84       0.00       8.67      14.26       0.27      14.53        3.41   375.92   0.552
  sub74                     13.45       0.00       0.00      10.09       2.88       0.00       2.89        1.15   273.25   0.215
  
  
  ******************
  Node Depth Summary
  ******************
  
  ---------------------------------------------------------------------------------
                                 Average  Maximum  Maximum  Time of Max    Reported
                                   Depth    Depth      HGL   Occurrence   Max Depth
  Node                 Type       Meters   Meters   Meters  days hr:min      Meters
  ---------------------------------------------------------------------------------
  WS02001211           JUNCTION     0.67     0.80     5.64     0  03:01        0.80
  WS02001212           JUNCTION     0.40     0.52     5.59     0  03:01        0.52
  WS02001213           JUNCTION     0.63     0.79     5.55     0  03:01        0.79
  WS02003069           JUNCTION     0.46     0.65     5.23     0  03:03        0.65
  WS02003072           JUNCTION     0.52     0.70     5.07     0  03:04        0.70
  WS02003073           JUNCTION     0.32     0.44     4.50     0  03:05        0.44
  WS02003060           JUNCTION     0.41     0.57     5.50     0  03:03        0.57
  WS02003066           JUNCTION     0.25     0.35     5.91     0  03:05        0.35
  WS02003059           JUNCTION     0.69     0.85     5.54     0  03:02        0.85
  WS02003067           JUNCTION     0.60     0.78     6.10     0  03:05        0.78
  WS02004401           JUNCTION     0.72     1.08     7.08     0  03:03        1.08
  WS02004402           JUNCTION     0.75     1.09     7.05     0  03:03        1.09
  WS02004403           JUNCTION     0.77     1.08     7.01     0  03:03        1.08
  WS02004404           JUNCTION     0.84     1.14     6.99     0  03:03        1.13
  WS02004406           JUNCTION     0.84     1.09     6.92     0  03:03        1.09
  WS02004409           JUNCTION     0.53     0.83     6.60     0  03:04        0.83
  WS02004410           JUNCTION     0.55     0.83     6.55     0  03:04        0.83
  WS02004411           JUNCTION     0.56     0.83     6.51     0  03:05        0.83
  WS02004412           JUNCTION     0.57     0.82     6.46     0  03:05        0.82
  WS02004413           JUNCTION     0.73     0.96     6.43     0  03:05        0.96
  WS02004405           JUNCTION     0.83     1.12     6.97     0  03:03        1.12
  WS02006109           JUNCTION     0.81     1.22     7.84     0  03:02        1.21
  WS02006110           JUNCTION     0.79     1.08     7.67     0  03:02        1.08
  WS02006111           JUNCTION     0.24     0.56     7.26     0  03:03        0.55
  WS02006112           JUNCTION     0.89     1.35     7.23     0  03:03        1.34
  WS02006113           JUNCTION     0.37     0.58     7.47     0  03:03        0.58
  WS02006115           JUNCTION     0.61     1.03     7.17     0  03:03        1.03
  WS02006116           JUNCTION     0.69     1.09     7.13     0  03:03        1.09
  WS02006230           JUNCTION     0.80     1.33     8.07     0  03:02        1.32
  WS02006231           JUNCTION     0.54     0.97     8.09     0  03:02        0.95
  WS02006232           JUNCTION     0.68     1.06     8.10     0  03:02        1.04
  WS02006234           JUNCTION     0.60     0.94     8.10     0  03:02        0.94
  WS02006235           JUNCTION     0.63     0.95     8.12     0  03:02        0.94
  WS02006238           JUNCTION     0.65     0.97     8.12     0  03:03        0.96
  WS02006240           JUNCTION     0.55     0.86     8.15     0  02:50        0.85
  WS02006242           JUNCTION     0.61     0.91     8.18     0  02:50        0.90
  WS02006243           JUNCTION     0.49     0.78     8.20     0  02:50        0.78
  WS02006245           JUNCTION     0.47     0.74     8.23     0  02:50        0.74
  WS02006247           JUNCTION     0.48     0.74     8.24     0  02:50        0.74
  WS02006248           JUNCTION     0.42     0.67     8.26     0  02:50        0.67
  WS02006249           JUNCTION     0.45     0.67     8.27     0  02:50        0.67
  WS02006239           JUNCTION     0.61     0.92     8.13     0  02:50        0.92
  WS02006251           JUNCTION     0.45     0.73     8.40     0  02:50        0.73
  WS02006252           JUNCTION     0.39     0.59     8.84     0  04:13        0.59
  WS02006253           JUNCTION     0.47     0.76     8.41     0  02:50        0.76
  WS02006256           JUNCTION     1.08     1.22     8.16     0  02:50        1.22
  WS02004138           JUNCTION     0.15     0.19     7.44     0  05:52        0.19
  WS02004407           JUNCTION     0.24     0.36     6.67     0  03:04        0.36
  WS02006228           JUNCTION     0.82     1.34     7.99     0  03:02        1.32
  WS02006229           JUNCTION     0.80     1.37     8.06     0  03:02        1.36
  WS02006280           JUNCTION     0.08     0.24     8.52     0  03:02        0.24
  WS02006284           JUNCTION     0.38     0.63     9.02     0  03:02        0.62
  WS02006287           JUNCTION     0.11     0.37     9.32     0  03:02        0.37
  WSF200               JUNCTION     0.24     0.39     5.62     0  03:05        0.39
  HS02004901           JUNCTION     0.14     0.35    10.17     0  03:01        0.35
  HS02004881           JUNCTION     0.01     0.05     9.08     0  03:01        0.05
  HS02004876           JUNCTION     0.05     0.15     9.18     0  03:01        0.15
  HS02004870           JUNCTION     0.02     0.09     9.37     0  03:01        0.09
  HS02004862           JUNCTION     0.02     0.10     9.49     0  03:01        0.10
  HS02004856           JUNCTION     0.08     0.15     9.57     0  03:01        0.15
  HS02004852           JUNCTION     0.01     0.07     9.58     0  03:02        0.07
  HS02004848           JUNCTION     0.01     0.06     9.67     0  03:01        0.06
  HS02004842           JUNCTION     0.33     0.40     9.67     0  03:01        0.40
  HS02004837           JUNCTION     0.03     0.09     9.67     0  03:01        0.09
  HS02004830           JUNCTION     0.04     0.10     9.57     0  03:01        0.10
  HS02004824           JUNCTION     0.03     0.11     9.51     0  03:02        0.11
  HS02004817           JUNCTION     0.45     0.67     9.52     0  03:02        0.67
  HS02004807           JUNCTION     0.14     0.34     9.51     0  03:02        0.34
  HS02004802           JUNCTION     0.17     0.38     9.50     0  03:02        0.38
  HS02004799           JUNCTION     0.14     0.43     9.65     0  03:01        0.43
  HS02004792           JUNCTION     0.04     0.20     9.72     0  03:01        0.19
  HS02004788           JUNCTION     0.03     0.14    10.04     0  03:02        0.14
  HS02004785           JUNCTION     0.06     0.23    10.13     0  03:02        0.23
  HS02004777           JUNCTION     0.16     0.37    10.17     0  03:01        0.37
  HS02004770           JUNCTION     0.13     0.34    10.17     0  03:01        0.34
  HS02004480           JUNCTION     0.10     0.35     9.59     0  03:01        0.35
  HS02004479           JUNCTION     0.13     0.39     9.60     0  03:01        0.39
  HS02004478           JUNCTION     0.07     0.26     9.48     0  03:01        0.26
  YS02001745           JUNCTION     0.68     0.89     8.40     0  03:33        0.88
  YS02001748           JUNCTION     1.06     2.27     9.35     0  02:48        1.32
  YS02001751           JUNCTION     1.24     2.04     8.92     0  02:48        1.53
  YS02001754           JUNCTION     1.49     1.98     8.59     0  02:48        1.81
  YS02001762           JUNCTION     1.69     2.03     8.43     0  03:13        2.03
  YS02001765           JUNCTION     1.65     1.98     8.43     0  03:34        1.97
  YS02001767           JUNCTION     1.61     1.93     8.42     0  03:17        1.93
  YS02001770           JUNCTION     1.60     1.91     8.41     0  03:00        1.91
  YS02001774           JUNCTION     1.67     1.98     8.40     0  02:49        1.97
  YS02001779           JUNCTION     1.42     1.68     8.37     0  02:48        1.68
  YS02001882           JUNCTION     0.57     1.64     8.35     0  02:55        1.63
  YS02001884           JUNCTION     0.67     1.73     8.35     0  03:00        1.72
  YS02001759           JUNCTION     1.73     2.07     8.43     0  03:37        2.06
  YS02001887           JUNCTION     0.75     1.81     8.35     0  02:59        1.80
  YS02001890           JUNCTION     0.77     1.81     8.32     0  02:55        1.81
  YS02001898           JUNCTION     0.54     1.57     8.30     0  02:55        1.56
  YS02001901           JUNCTION     0.66     1.68     8.29     0  02:55        1.67
  YS02001904           JUNCTION     0.64     1.64     8.27     0  03:01        1.63
  YS02001907           JUNCTION     0.97     1.96     8.25     0  02:55        1.96
  YS02001910           JUNCTION     0.76     1.79     8.30     0  02:56        1.78
  YS02001915           JUNCTION     0.56     1.61     8.33     0  02:56        1.59
  YS02001918           JUNCTION     0.30     1.31     8.38     0  02:56        1.26
  YS02001619           JUNCTION     1.21     1.52     8.45     0  02:49        1.48
  YS02001629           JUNCTION     1.56     1.85     8.40     0  02:47        1.85
  YS02001641           JUNCTION     1.66     1.94     8.37     0  03:30        1.93
  YS02001644           JUNCTION     1.66     1.92     8.35     0  02:49        1.92
  YS02001652           JUNCTION     1.51     2.16     8.76     0  02:57        2.00
  YS02001655           JUNCTION     1.27     2.20     9.05     0  03:14        1.90
  YS02001920           JUNCTION     0.40     1.40     8.40     0  02:56        1.34
  YS02001923           JUNCTION     0.23     1.17     8.43     0  02:56        1.09
  YS02001926           JUNCTION     0.28     0.98     8.43     0  02:56        0.93
  YS02001929           JUNCTION     0.16     0.74     8.43     0  02:56        0.72
  YS02001658           JUNCTION     1.00     2.30     9.44     0  03:16        1.73
  YS02001661           JUNCTION     0.79     2.46     9.86     0  03:14        1.52
  YS02001664           JUNCTION     0.35     0.57     8.49     0  04:13        0.56
  YS02001622           JUNCTION     1.23     1.53     8.43     0  02:49        1.50
  YS02001633           JUNCTION     1.65     1.96     8.41     0  02:50        1.94
  YS02001649           JUNCTION     1.70     2.05     8.44     0  02:56        2.05
  YS02001757           JUNCTION     1.82     2.17     8.44     0  03:37        2.16
  YS02001895           JUNCTION     0.54     1.57     8.31     0  02:56        1.56
  YS02001625           JUNCTION     1.51     1.78     8.38     0  02:45        1.78
  YS02163301           JUNCTION     1.59     1.89     8.41     0  02:50        1.88
  YS02163601           JUNCTION     1.70     2.00     8.40     0  02:50        1.98
  YS02164001           JUNCTION     1.64     1.93     8.38     0  02:50        1.91
  YS02001647           JUNCTION     1.49     1.81     8.42     0  03:00        1.80
  YSB1154              JUNCTION     0.27     0.54     9.60     0  03:01        0.54
  YSB6556              JUNCTION     0.17     0.43     9.60     0  03:02        0.43
  YSB1174              JUNCTION     0.22     0.49     9.60     0  03:01        0.49
  YSB1171              JUNCTION     0.42     0.69     9.60     0  03:01        0.69
  YS02006553           JUNCTION     0.97     2.17     8.45     0  02:55        1.96
  YS02006561           JUNCTION     0.33     1.77     8.43     0  02:55        1.08
  YS02006556           JUNCTION     0.94     2.39     8.70     0  02:55        1.94
  YS02006558           JUNCTION     0.98     2.50     8.77     0  02:55        1.98
  YS02001783           JUNCTION     0.57     2.30     8.44     0  02:55        1.47
  YS02001784           JUNCTION     0.58     2.29     8.36     0  02:55        1.42
  YS02001786           JUNCTION     0.52     2.23     8.26     0  02:55        1.26
  YS02001788           JUNCTION     0.45     2.28     8.26     0  02:55        1.13
  YS02001790           JUNCTION     0.58     1.96     7.60     0  02:55        1.29
  YS02001791           JUNCTION     0.56     2.18     7.65     0  02:55        1.27
  YS02001793           JUNCTION     0.78     2.12     6.95     0  02:55        1.80
  WS02004139           JUNCTION     0.61     0.74     5.65     0  03:01        0.74
  WSC                  OUTFALL      0.31     0.44     1.11     0  03:05        0.44
  3                    OUTFALL      0.12     0.22     6.22     0  02:50        0.22
  4                    OUTFALL      0.04     0.17     7.17     0  02:50        0.17
  5                    OUTFALL      0.00     0.00     5.00     0  00:00        0.00
  JK-storage           STORAGE      2.86     5.80     6.60     0  02:55        5.80
  CC-storage           STORAGE      1.03     1.39     8.39     0  03:34        1.39
  XR-storage           STORAGE      7.07     7.72     5.72     0  02:53        7.72
  
  
  *******************
  Node Inflow Summary
  *******************
  
  -------------------------------------------------------------------------------------------------
                                  Maximum  Maximum                  Lateral       Total        Flow
                                  Lateral    Total  Time of Max      Inflow      Inflow     Balance
                                   Inflow   Inflow   Occurrence      Volume      Volume       Error
  Node                 Type           LPS      LPS  days hr:min    10^6 ltr    10^6 ltr     Percent
  -------------------------------------------------------------------------------------------------
  WS02001211           JUNCTION      7.35   386.63     0  06:00       0.207        6.93       0.535
  WS02001212           JUNCTION      0.00   385.54     0  06:00           0        6.89       0.290
  WS02001213           JUNCTION      0.00   384.86     0  06:00           0        6.87       0.338
  WS02003069           JUNCTION      0.32  1125.47     0  03:03     0.00902        15.7       0.194
  WS02003072           JUNCTION      0.00  1125.27     0  03:04           0        15.6       0.235
  WS02003073           JUNCTION      1.82  1127.48     0  03:04      0.0514        15.6       0.262
  WS02003060           JUNCTION     16.53  1124.53     0  03:02       0.466        15.7       0.188
  WS02003066           JUNCTION      0.00   775.02     0  03:05           0        8.42       0.055
  WS02003059           JUNCTION      0.00   384.17     0  06:01           0        6.85       0.568
  WS02003067           JUNCTION      0.00   774.64     0  03:05           0        8.43       0.116
  WS02004401           JUNCTION      0.00   778.05     0  03:04           0        8.68       0.275
  WS02004402           JUNCTION      0.00   778.09     0  03:04           0        8.66       0.256
  WS02004403           JUNCTION      0.00   778.18     0  03:03           0        8.63       0.230
  WS02004404           JUNCTION      0.16   778.44     0  03:03     0.00457        8.62       0.172
  WS02004406           JUNCTION      0.00   778.52     0  03:03           0        8.58       0.416
  WS02004409           JUNCTION      0.00   778.21     0  03:04           0        8.54       0.213
  WS02004410           JUNCTION      0.00   776.68     0  03:04           0        8.52       0.235
  WS02004411           JUNCTION      0.00   775.39     0  03:04           0         8.5       0.238
  WS02004412           JUNCTION      0.00   774.76     0  03:05           0        8.48       0.253
  WS02004413           JUNCTION      0.00   774.55     0  03:05           0        8.46       0.370
  WS02004405           JUNCTION      0.04   778.50     0  03:03     0.00107        8.61       0.255
  WS02006109           JUNCTION      1.23   765.31     0  03:02      0.0347        8.75       0.258
  WS02006110           JUNCTION      0.00   765.25     0  03:02           0        8.73       0.251
  WS02006111           JUNCTION      0.00   761.17     0  03:03           0        8.69       0.063
  WS02006112           JUNCTION     26.73   777.43     0  03:03      0.0709        8.76       0.363
  WS02006113           JUNCTION      0.00   765.28     0  03:02           0         8.7       0.134
  WS02006115           JUNCTION      0.00   777.33     0  03:03           0        8.73       0.267
  WS02006116           JUNCTION      0.00   777.83     0  03:04           0         8.7       0.251
  WS02006230           JUNCTION     10.28   403.02     0  06:30        0.29        6.66       0.193
  WS02006231           JUNCTION      0.00   393.01     0  06:30           0        6.39       0.296
  WS02006232           JUNCTION      0.00   393.00     0  06:30           0         6.4       0.277
  WS02006234           JUNCTION      0.00   393.18     0  06:30           0        6.42       0.168
  WS02006235           JUNCTION      0.00   393.21     0  06:30           0        6.48       0.190
  WS02006238           JUNCTION      0.00   318.39     0  06:10           0        4.58       0.189
  WS02006240           JUNCTION      0.00   330.75     0  06:11           0        4.58       0.351
  WS02006242           JUNCTION      0.00   339.47     0  03:41           0        4.58       0.413
  WS02006243           JUNCTION      0.00   347.25     0  03:41           0        4.57      -0.074
  WS02006245           JUNCTION      0.00   351.18     0  03:41           0        4.59       0.334
  WS02006247           JUNCTION      0.00   355.34     0  03:40           0         4.6       0.232
  WS02006248           JUNCTION      0.00   359.17     0  03:40           0         4.6       0.153
  WS02006249           JUNCTION      0.00   485.66     0  02:50           0        5.57       0.281
  WS02006239           JUNCTION      0.00   323.79     0  06:10           0        4.58       0.261
  WS02006251           JUNCTION      0.08   486.57     0  02:50     0.00217        5.61       0.254
  WS02006252           JUNCTION      0.00   400.00     0  02:10           0        5.18       0.010
  WS02006253           JUNCTION      3.67   134.78     0  03:01     0.00915        0.44       1.935
  WS02006256           JUNCTION      0.00   600.00     0  02:15           0         7.1       0.045
  WS02004138           JUNCTION      0.00   380.00     0  05:50           0        6.75       0.065
  WS02004407           JUNCTION      0.00   778.51     0  03:04           0        8.55       0.100
  WS02006228           JUNCTION      0.00   764.09     0  03:02           0        8.73       0.179
  WS02006229           JUNCTION      0.00   763.94     0  03:02           0        8.74       0.147
  WS02006280           JUNCTION      0.00   611.99     0  03:02           0         2.1       0.003
  WS02006284           JUNCTION      0.10   611.09     0  03:02      0.0027         2.1       0.059
  WS02006287           JUNCTION      0.00   609.86     0  03:02           0         2.1       0.034
  WSF200               JUNCTION      0.00   775.12     0  03:05           0        8.41       0.054
  HS02004901           JUNCTION     32.58    32.58     0  03:01      0.0854      0.0856       2.107
  HS02004881           JUNCTION     13.69   131.69     0  03:01      0.0372       0.403       0.062
  HS02004876           JUNCTION     24.31   119.37     0  03:01      0.0714       0.367       0.153
  HS02004870           JUNCTION     25.15    96.63     0  03:01      0.0704       0.295       0.038
  HS02004862           JUNCTION     23.13    73.48     0  03:01      0.0763       0.225       0.080
  HS02004856           JUNCTION     18.81    51.88     0  03:01      0.0529        0.15       0.973
  HS02004852           JUNCTION      0.00    35.11     0  03:01           0      0.0975       0.061
  HS02004848           JUNCTION     51.30    51.30     0  03:01        0.17        0.17       0.030
  HS02004842           JUNCTION      0.00    15.11     0  03:01           0      0.0852      18.024
  HS02004837           JUNCTION     48.64    62.30     0  03:01       0.302       0.374       0.218
  HS02004830           JUNCTION      0.15    61.39     0  03:01     0.00423       0.364       0.341
  HS02004824           JUNCTION     61.99   121.76     0  03:01       0.222       0.584       0.093
  HS02004817           JUNCTION      0.60   117.99     0  03:02      0.0169       0.601       2.855
  HS02004807           JUNCTION     46.68   158.05     0  03:01       0.129       0.713       0.602
  HS02004802           JUNCTION      0.00   156.92     0  03:03           0       0.709       0.571
  HS02004799           JUNCTION     37.02   389.12     0  03:01       0.105        1.19       0.208
  HS02004792           JUNCTION    159.34   356.43     0  03:01       0.445        1.08       0.039
  HS02004788           JUNCTION     52.70   202.58     0  03:02       0.193       0.638       0.062
  HS02004785           JUNCTION      0.15   157.28     0  03:01     0.00423       0.447       0.112
  HS02004777           JUNCTION      0.03   160.02     0  03:01    0.000846       0.447       1.175
  HS02004770           JUNCTION    133.95   163.77     0  03:01       0.365       0.449       0.699
  HS02004480           JUNCTION      0.00   456.71     0  03:01           0         1.4       0.083
  HS02004479           JUNCTION      0.00    72.19     0  03:02           0       0.228       0.322
  HS02004478           JUNCTION      0.00   609.32     0  03:02           0         2.1       0.019
  YS02001745           JUNCTION    387.96   387.96     0  03:01        2.65        2.65       0.402
  YS02001748           JUNCTION      0.04   501.23     0  02:48     0.00127        2.64       0.888
  YS02001751           JUNCTION      0.01   397.82     0  03:01     0.00031        2.62       0.910
  YS02001754           JUNCTION      0.26   398.02     0  03:01     0.00733         2.6       0.960
  YS02001762           JUNCTION      0.00   399.46     0  02:56           0        1.83       1.168
  YS02001765           JUNCTION      0.00   399.41     0  02:56           0        1.83       1.351
  YS02001767           JUNCTION      0.54   399.42     0  02:56      0.0151        1.85       1.971
  YS02001770           JUNCTION    496.57   496.57     0  03:01        2.97        3.07       1.043
  YS02001774           JUNCTION      0.00   374.99     0  03:37           0         1.3       1.973
  YS02001779           JUNCTION      0.01   375.32     0  03:39    0.000141        1.27       1.228
  YS02001882           JUNCTION      0.00    22.06     0  02:49           0       0.022      11.534
  YS02001884           JUNCTION      0.00    28.68     0  02:47           0      0.0564      12.826
  YS02001759           JUNCTION    483.56   801.95     0  02:57        2.74        4.44       0.518
  YS02001887           JUNCTION    623.03   623.03     0  03:01        3.16        3.19       0.276
  YS02001890           JUNCTION      0.00   622.96     0  03:01           0        3.14       0.300
  YS02001898           JUNCTION      0.00   516.89     0  03:08           0        3.09       0.120
  YS02001901           JUNCTION      0.00   516.92     0  03:08           0        3.08       0.224
  YS02001904           JUNCTION      0.00   516.91     0  03:00           0        3.08       0.205
  YS02001907           JUNCTION      0.00  1103.32     0  02:57           0        6.88       0.354
  YS02001910           JUNCTION      0.00   589.90     0  02:57           0        3.81       0.323
  YS02001915           JUNCTION    347.37   589.99     0  02:57        2.22        3.84       0.162
  YS02001918           JUNCTION      0.00   289.23     0  02:57           0        1.63       0.140
  YS02001619           JUNCTION    337.96   337.96     0  03:01        2.21        2.21       0.562
  YS02001629           JUNCTION      0.00   235.62     0  02:51           0        1.58       1.860
  YS02001641           JUNCTION      0.00   495.40     0  02:51           0         4.1       0.512
  YS02001644           JUNCTION    368.39  1104.16     0  03:34        2.55        8.82       0.296
  YS02001652           JUNCTION      0.00   485.36     0  03:01           0         2.3       1.011
  YS02001655           JUNCTION      0.15   484.95     0  03:01     0.00434        2.33       1.107
  YS02001920           JUNCTION      2.87   289.28     0  02:57      0.0809        1.62       0.205
  YS02001923           JUNCTION      0.04   272.08     0  02:57     0.00106        1.53       0.047
  YS02001926           JUNCTION      0.05   215.31     0  02:57     0.00147        1.53       0.232
  YS02001929           JUNCTION    163.23   163.23     0  03:01        1.53        1.53       0.038
  YS02001658           JUNCTION      0.00   499.89     0  03:01           0        2.35       1.013
  YS02001661           JUNCTION      0.00   759.12     0  02:57           0        3.03      -0.031
  YS02001664           JUNCTION    446.68   446.68     0  03:01        2.35        3.03       0.191
  YS02001622           JUNCTION      0.00   338.21     0  03:01           0        2.19       1.472
  YS02001633           JUNCTION    373.80   495.87     0  02:51        2.63        4.16       0.767
  YS02001649           JUNCTION      0.00  1044.34     0  02:52           0        5.33       0.703
  YS02001757           JUNCTION      0.00  2051.82     0  02:53           0        9.96       0.935
  YS02001895           JUNCTION      0.00   516.88     0  03:00           0        3.09       0.162
  YS02001625           JUNCTION      0.00   338.18     0  03:01           0        2.16       1.813
  YS02163301           JUNCTION      0.00   235.57     0  02:51           0        1.56       1.552
  YS02163601           JUNCTION      0.11   495.86     0  02:51      0.0031        4.13       0.732
  YS02164001           JUNCTION      0.00   495.84     0  02:51           0        4.11       0.484
  YS02001647           JUNCTION      0.00   753.05     0  02:51           0        4.16       0.683
  YSB1154              JUNCTION     43.21    43.21     0  03:01       0.127       0.128       1.144
  YSB6556              JUNCTION      0.00    41.77     0  03:01           0       0.129       0.980
  YSB1174              JUNCTION     35.94    35.94     0  03:01      0.0924      0.0931       1.403
  YSB1171              JUNCTION      0.00    73.33     0  03:01           0       0.227       2.865
  YS02006553           JUNCTION      0.00   701.90     0  02:55           0         6.2       0.256
  YS02006561           JUNCTION      0.00  1128.26     0  02:55           0        9.05       0.007
  YS02006556           JUNCTION      0.00   701.79     0  02:55           0         6.2       0.184
  YS02006558           JUNCTION    532.26  1128.39     0  02:55         2.9        9.07       0.061
  YS02001783           JUNCTION      0.00  1129.23     0  02:55           0        9.04       0.028
  YS02001784           JUNCTION      1.06  1130.28     0  02:55      0.0299        9.07       0.044
  YS02001786           JUNCTION      0.06  1130.48     0  02:55     0.00159        9.07       0.041
  YS02001788           JUNCTION      0.07  1130.60     0  02:55       0.002        9.07       0.022
  YS02001790           JUNCTION      0.15  1110.26     0  02:55     0.00437        9.07       0.029
  YS02001791           JUNCTION      0.00  1177.48     0  02:54           0        9.07       0.010
  YS02001793           JUNCTION      0.00  1087.42     0  02:53           0        9.07       0.002
  WS02004139           JUNCTION      0.32   380.32     0  05:52     0.00905        6.76       0.560
  WSC                  OUTFALL       0.00  1128.25     0  03:05           0        15.6       0.000
  3                    OUTFALL       0.00   550.49     0  02:50           0        5.16       0.000
  4                    OUTFALL       0.00   261.83     0  02:50           0       0.954       0.000
  5                    OUTFALL       0.00     0.00     0  00:00           0           0       0.000 ltr
  JK-storage           STORAGE       0.00  1058.56     0  02:55           0        9.22      -8.233
  CC-storage           STORAGE       0.00  2051.97     0  02:53           0        8.76      -0.019
  XR-storage           STORAGE     849.17   849.17     0  03:01        10.2        10.8      -0.002
  
  
  **********************
  Node Surcharge Summary
  **********************
  
  Surcharging occurs when water rises above the top of the highest conduit.
  ---------------------------------------------------------------------
                                               Max. Height   Min. Depth
                                   Hours       Above Crown    Below Rim
  Node                 Type      Surcharged         Meters       Meters
  ---------------------------------------------------------------------
  WS02004401           JUNCTION        0.33          0.084        1.576
  WS02004402           JUNCTION        0.39          0.089        1.651
  WS02004403           JUNCTION        0.40          0.081        1.949
  WS02004404           JUNCTION        0.89          0.136        2.644
  WS02004406           JUNCTION        0.68          0.090        2.360
  WS02004405           JUNCTION        0.79          0.118        2.682
  WS02006109           JUNCTION        2.59          0.403        1.417
  WS02006110           JUNCTION        1.20          0.172        1.678
  WS02006112           JUNCTION        1.27          0.351        1.329
  WS02006115           JUNCTION        0.06          0.020        2.230
  WS02006116           JUNCTION        0.09          0.030        2.260
  WS02006230           JUNCTION        0.88          0.248        1.322
  WS02006231           JUNCTION        1.09          0.257        1.273
  WS02006232           JUNCTION        2.71          0.357        1.123
  WS02006234           JUNCTION        1.23          0.223        1.017
  WS02006235           JUNCTION        2.15          0.243        1.047
  WS02006238           JUNCTION        2.42          0.253        1.177
  WS02006240           JUNCTION        1.21          0.145        1.245
  WS02006242           JUNCTION        2.05          0.176        0.644
  WS02006243           JUNCTION        0.90          0.073        0.697
  WS02006245           JUNCTION        0.15          0.032        0.818
  WS02006247           JUNCTION        0.22          0.033        0.727
  WS02006239           JUNCTION        1.50          0.178        1.112
  WS02006252           JUNCTION        2.75          0.193        0.907
  WS02006228           JUNCTION        2.50          0.507        1.693
  YS02001748           JUNCTION        4.99          1.190        0.000
  YS02001751           JUNCTION        5.10          1.038        0.162
  YS02001754           JUNCTION        5.22          0.930        0.220
  YS02001762           JUNCTION        5.51          1.033        0.117
  YS02001765           JUNCTION        5.48          0.982        0.118
  YS02001767           JUNCTION        5.44          0.934        0.096
  YS02001770           JUNCTION        5.31          0.883        0.037
  YS02001774           JUNCTION        5.50          0.980        0.070
  YS02001779           JUNCTION        5.22          0.680        0.000
  YS02001882           JUNCTION        1.00          0.635        0.195
  YS02001884           JUNCTION        1.03          0.673        0.197
  YS02001759           JUNCTION        5.54          1.069        0.141
  YS02001887           JUNCTION        1.12          0.761        0.189
  YS02001890           JUNCTION        1.15          0.760        0.000
  YS02001898           JUNCTION        0.95          0.535        0.205
  YS02001901           JUNCTION        1.08          0.681        0.189
  YS02001904           JUNCTION        1.06          0.638        0.212
  YS02001907           JUNCTION        1.66          0.950        0.000
  YS02001910           JUNCTION        1.20          0.791        0.309
  YS02001915           JUNCTION        0.98          0.614        0.386
  YS02001918           JUNCTION        0.73          0.312        0.498
  YS02001619           JUNCTION        5.13          0.518        0.092
  YS02001629           JUNCTION        5.13          0.470        0.000
  YS02001641           JUNCTION        5.50          0.935        0.165
  YS02001644           JUNCTION        5.50          0.920        0.000
  YS02001652           JUNCTION        5.24          1.130        0.000
  YS02001655           JUNCTION        5.13          1.200        0.000
  YS02001920           JUNCTION        0.76          0.395        0.745
  YS02001658           JUNCTION        5.01          1.300        0.000
  YS02001661           JUNCTION        0.24          1.390        0.000
  YS02001622           JUNCTION        5.13          0.526        0.094
  YS02001633           JUNCTION        5.48          0.939        0.121
  YS02001649           JUNCTION        5.52          1.050        0.000
  YS02001757           JUNCTION        5.62          1.174        0.036
  YS02001895           JUNCTION        0.97          0.567        0.183
  YS02001625           JUNCTION        5.28          0.780        0.000
  YS02163301           JUNCTION        5.43          0.892        0.138
  YS02163601           JUNCTION        5.52          0.999        0.081
  YS02164001           JUNCTION        5.49          0.926        0.174
  YS02001647           JUNCTION        5.26          0.805        0.095
  YS02006553           JUNCTION        1.71          1.171        0.019
  YS02006561           JUNCTION        0.81          0.973        0.177
  YS02006556           JUNCTION        1.41          1.350        0.000
  YS02006558           JUNCTION        1.38          1.400        0.000
  YS02001783           JUNCTION        1.37          1.502        0.098
  YS02001784           JUNCTION        1.45          1.490        0.000
  YS02001786           JUNCTION        1.28          1.430        0.000
  YS02001788           JUNCTION        1.22          1.480        0.000
  YS02001790           JUNCTION        2.20          1.157        0.000
  YS02001791           JUNCTION        2.33          1.384        0.536
  YS02001793           JUNCTION        2.73          1.123        1.477
  
  
  *********************
  Node Flooding Summary
  *********************
  
  Flooding refers to all water that overflows a node, whether it ponds or not.
  --------------------------------------------------------------------------
                                                             Total   Maximum
                                 Maximum   Time of Max       Flood    Ponded
                        Hours       Rate    Occurrence      Volume     Depth
  Node                 Flooded       LPS   days hr:min    10^6 ltr    Meters
  --------------------------------------------------------------------------
  YS02001748              0.01    118.66      0  02:48       0.000     0.000
  YS02001779              2.61    375.08      0  03:37       1.250     0.000
  YS02001890              0.22    106.93      0  03:01       0.038     0.000
  YS02001907              0.59    645.61      0  03:01       0.667     0.000
  YS02001629              0.01      3.05      0  02:47       0.000     0.000
  YS02001644              4.51   1104.02      0  03:34       6.815     0.000
  YS02001652              0.01     17.17      0  03:16       0.000     0.000
  YS02001655              0.01     20.59      0  03:17       0.000     0.000
  YS02001658              0.01     11.85      0  03:16       0.000     0.000
  YS02001661              0.01    158.60      0  03:16       0.000     0.000
  YS02001649              0.09     46.38      0  03:16       0.005     0.000
  YS02001625              1.11    316.01      0  03:01       0.540     0.000
  YS02006556              0.01      8.59      0  02:55       0.000     0.000
  YS02006558              0.01      6.57      0  02:55       0.000     0.000
  YS02001784              0.01     15.21      0  02:55       0.000     0.000
  YS02001786              0.01     22.39      0  02:55       0.000     0.000
  YS02001788              0.01    210.96      0  02:55       0.000     0.000
  YS02001790              0.01    161.70      0  02:55       0.000     0.000
  JK-storage              1.75    969.29      0  03:00       2.967     0.000
  XR-storage              3.63    567.94      0  03:10       3.174     0.000
  
  
  **********************
  Storage Volume Summary
  **********************
  
  --------------------------------------------------------------------------------------------------
                         Average     Avg  Evap Exfil       Maximum     Max    Time of Max    Maximum
                          Volume    Pcnt  Pcnt  Pcnt        Volume    Pcnt     Occurrence    Outflow
  Storage Unit           1000 m3    Full  Loss  Loss       1000 m3    Full    days hr:min        LPS
  --------------------------------------------------------------------------------------------------
  JK-storage               0.144      49     0     0         0.291     100       0  02:55     600.00
  CC-storage               2.872      18     0     0         3.879      25       0  03:34     400.00
  XR-storage               0.849      92     0     0         0.926     100       0  02:53     380.00
  
  
  ***********************
  Outfall Loading Summary
  ***********************
  
  -----------------------------------------------------------
                         Flow       Avg       Max       Total
                         Freq      Flow      Flow      Volume
  Outfall Node           Pcnt       LPS       LPS    10^6 ltr
  -----------------------------------------------------------
  WSC                   99.99    639.54   1128.25      15.609
  3                     87.36    286.04    550.49       5.163
  4                     48.41     95.30    261.83       0.954
  5                      0.00      0.00      0.00       0.000
  -----------------------------------------------------------
  System                58.94   1020.88   1779.30      21.725
  
  
  ********************
  Link Flow Summary
  ********************
  
  -----------------------------------------------------------------------------
                                 Maximum  Time of Max   Maximum    Max/    Max/
                                  |Flow|   Occurrence   |Veloc|    Full    Full
  Link                 Type          LPS  days hr:min     m/sec    Flow   Depth
  -----------------------------------------------------------------------------
  WS02003066WSF200     CONDUIT    775.12     0  03:05      2.90    0.13    0.29
  WS02006287WS02006284 CONDUIT    611.00     0  03:02      2.31    0.28    0.37
  WS02006284WS02006280 CONDUIT    611.99     0  03:02      2.55    0.26    0.35
  WS02006280WS02006229 CONDUIT    612.11     0  03:02      4.12    0.13    0.24
  WS02006229WS02006228 CONDUIT    764.09     0  03:02      1.52    2.53    1.00
  WS02006256WS02006235 CONDUIT    166.25     0  00:01      2.58    1.76    1.00
  WS02006253WS02006251 CONDUIT    133.97     0  03:01      0.45    0.40    1.00
  WS02006252WS02006251 CONDUIT    400.75     0  06:10      3.19    1.47    1.00
  WS02006251WS02006249 CONDUIT    485.66     0  02:50      1.27    1.40    0.98
  WS02006249WS02006248 CONDUIT    359.17     0  03:40      1.18    1.97    0.95
  WS02006248WS02006247 CONDUIT    355.34     0  03:40      1.15    0.77    0.98
  WS02006247WS02006245 CONDUIT    351.18     0  03:41      1.11    2.78    1.00
  WS02006245WS02006243 CONDUIT    347.25     0  03:41      1.15    1.03    1.00
  WS02006243WS02006242 CONDUIT    339.47     0  03:41      1.03    0.73    1.00
  WS02006242WS02006240 CONDUIT    330.75     0  06:11      0.97    1.31    1.00
  WS02006240WS02006239 CONDUIT    323.79     0  06:10      1.01    1.02    1.00
  WS02006239WS02006238 CONDUIT    318.39     0  06:10      0.90    1.02    1.00
  WS02006238WS02006235 CONDUIT    315.87     0  06:10      1.25    0.71    1.00
  WS02006235WS02006234 CONDUIT    393.18     0  06:30      1.06    4.15    1.00
  WS02006234WS02006232 CONDUIT    393.00     0  06:30      1.13    0.80    1.00
  WS02006232WS02006231 CONDUIT    393.01     0  06:30      1.06    0.82    1.00
  WS02006231WS02006230 CONDUIT    392.74     0  06:30      1.35    5.96    1.00
  WS02006230WS02006229 CONDUIT    402.77     0  06:30      1.05    8.96    1.00
  WS02006228WS02006109 CONDUIT    764.08     0  03:02      1.52    3.34    1.00
  WS02006116WS02004401 CONDUIT    778.05     0  03:04      0.99    1.07    1.00
  WS02006115WS02006116 CONDUIT    777.83     0  03:04      0.99    1.00    1.00
  WS02006113WS02006111 CONDUIT    761.17     0  03:03      2.60    0.91    0.71
  WS02006112WS02006115 CONDUIT    777.33     0  03:03      0.99    0.46    1.00
  WS02006111WS02006112 CONDUIT    760.31     0  03:04      1.72    0.36    0.84
  WS02006110WS02006113 CONDUIT    765.28     0  03:02      1.66    0.70    0.86
  WS02006109WS02006110 CONDUIT    765.25     0  03:02      1.52    1.47    1.00
  WS02004411WS02004412 CONDUIT    774.76     0  03:05      1.12    1.10    0.82
  WS02004401WS02004402 CONDUIT    778.09     0  03:04      0.99    0.93    1.00
  WS02004413WS02003067 CONDUIT    774.64     0  03:05      1.36    0.33    0.68
  WS02004412WS02004413 CONDUIT    774.55     0  03:05      1.05    0.52    0.89
  WS02004410WS02004411 CONDUIT    775.39     0  03:04      1.11    1.06    0.83
  WS02004409WS02004410 CONDUIT    776.68     0  03:04      1.11    1.00    0.83
  WS02004407WS02004409 CONDUIT    778.21     0  03:04      1.60    0.28    0.59
  WS02004406WS02004407 CONDUIT    778.51     0  03:04      1.37    0.35    0.68
  WS02004405WS02004406 CONDUIT    778.52     0  03:03      0.99    1.54    1.00
  WS02004404WS02004405 CONDUIT    778.46     0  03:03      0.99    7.63    1.00
  WS02004403WS02004404 CONDUIT    778.27     0  03:03      0.99    0.56    1.00
  WS02004402WS02004403 CONDUIT    778.18     0  03:03      0.99    1.12    1.00
  WS02004139WS02001211 CONDUIT    379.29     0  06:00      0.69    0.48    0.60
  WS02004138WS02004139 CONDUIT    380.00     0  05:52      2.94    0.08    0.44
  WS02003067WS02003066 CONDUIT    775.02     0  03:05      1.48    0.25    0.47
  WS02001213WS02003059 CONDUIT    384.17     0  06:01      0.67    0.63    0.81
  WS02001212WS02001213 CONDUIT    384.86     0  06:00      1.31    0.59    0.50
  WS02001211WS02001212 CONDUIT    385.54     0  06:00      0.77    0.29    0.66
  WS02003072WS02003073 CONDUIT   1125.66     0  03:04      1.84    2.43    0.53
  WS02003069WS02003072 CONDUIT   1125.27     0  03:04      1.72    0.54    0.56
  WS02003060WS02003069 CONDUIT   1125.15     0  03:03      1.95    0.44    0.51
  WS02003059WS02003060 CONDUIT    383.57     0  06:01      0.93    0.25    0.71
  HS02004901HS02004770 CONDUIT     32.25     0  03:01      0.09    0.12    0.50
  HS02004876HS02004881 CONDUIT    119.33     0  03:01      1.17    1.27    0.15
  HS02004870HS02004876 CONDUIT     96.14     0  03:01      0.79    0.06    0.17
  HS02004842HS02004848 CONDUIT     15.11     0  03:01      0.07    0.01    0.33
  HS02004837HS02004842 CONDUIT     16.10     0  03:03      0.41    0.01    0.34
  HS02004830HS02004837 CONDUIT     61.24     0  03:01      0.66    0.06    0.13
  HS02004824HS02004830 CONDUIT     60.79     0  03:01      0.63    0.08    0.15
  HS02004817HS02004824 CONDUIT    117.39     0  03:02      0.30    0.05    0.56
  HS02004770HS02004777 CONDUIT    159.99     0  03:01      0.45    0.29    0.51
  HS02004799HS02004480 CONDUIT    387.39     0  03:01      1.00    0.49    0.56
  HS02004792HS02004799 CONDUIT    353.08     0  03:01      1.12    0.22    0.45
  HS02004788HS02004792 CONDUIT    202.15     0  03:02      1.22    0.13    0.24
  HS02004785HS02004788 CONDUIT    156.69     0  03:02      0.85    1.18    0.26
  HS02004777HS02004785 CONDUIT    157.13     0  03:01      0.53    0.19    0.42
  HS02004480HS02004478 CONDUIT    456.77     0  03:01      1.47    1.92    0.44
  HS02004479HS02004480 CONDUIT     74.08     0  03:02      0.22    0.07    0.53
  HS02004862HS02004870 CONDUIT     73.11     0  03:01      0.77    0.08    0.14
  HS02004848HS02004852 CONDUIT     35.11     0  03:01      0.52    0.04    0.10
  HS02004856HS02004862 CONDUIT     51.23     0  03:01      0.58    0.05    0.13
  HS02004852HS02004856 CONDUIT     35.03     0  03:02      0.32    0.04    0.16
  HS02004802HS02004478 CONDUIT    160.69     0  03:04      0.54    0.14    0.45
  HS02004478WS02006287 CONDUIT    609.86     0  03:02      2.03    0.17    0.33
  HS02004817HS02004807 CONDUIT    120.82     0  03:04      0.24    0.07    0.73
  HS02004807HS02004802 CONDUIT    156.92     0  03:03      0.45    0.30    0.51
  YS02001759YS02001757 CONDUIT    801.73     0  02:57      1.02    0.57    1.00
  YS02001762YS02001759 CONDUIT    399.35     0  02:56      0.51    0.46    1.00
  YS02001765YS02001762 CONDUIT    399.46     0  02:56      0.51    0.37    1.00
  YS02001770YS02001767 CONDUIT    398.88     0  02:56      0.51    1.58    1.00
  YS02001774YS02001770 CONDUIT    374.99     0  03:37      0.48    0.24    1.00
  YS02001779YS02001774 CONDUIT    375.32     0  03:39      0.48    0.19    1.00
  YS02001649YS02001757 CONDUIT   1043.86     0  02:52      1.33    0.63    1.00
  YS02001767YS02001765 CONDUIT    399.41     0  02:56      0.51    0.50    1.00
  YS02006561YS02001783 CONDUIT   1129.23     0  02:55      2.26    0.58    1.00
  YS02001783YS02001784 CONDUIT   1129.22     0  02:55      2.25    1.56    1.00
  YS02001784YS02001785 CONDUIT   1130.42     0  02:55      2.25    2.63    1.00
  YS02001788YS02001790 CONDUIT   1110.10     0  02:55      2.64    0.82    1.00
  YS02001790YS02001791 CONDUIT   1177.48     0  02:54      3.34    1.28    1.00
  YS02001791YS02001793 CONDUIT   1087.42     0  02:53      6.42    0.47    1.00
  YS02001910YS02001907 CONDUIT    590.06     0  02:57      0.75    0.33    1.00
  YS02001786YS02001788 CONDUIT   1130.53     0  02:55      2.41    2.18    1.00
  YS02001915YS02001910 CONDUIT    589.90     0  02:57      0.75    0.29    1.00
  YS02001918YS02001915 CONDUIT    289.39     0  02:57      0.44    0.16    1.00
  YS02001923YS02001920 CONDUIT    286.41     0  02:57      0.72    0.13    1.00
  YS02001926YS02001923 CONDUIT    272.04     0  02:57      0.82    0.39    0.97
  YS02001929YS02001926 CONDUIT    215.26     0  02:57      0.87    0.10    0.85
  YS02001920YS02001918 CONDUIT    289.23     0  02:57      0.70    0.28    1.00
  YS02001629YS02163301 CONDUIT    235.57     0  02:51      0.30    0.29    1.00
  YS02001619YS02001622 CONDUIT    338.21     0  03:01      0.60    0.50    1.00
  YS02001622YS02001625 CONDUIT    338.18     0  03:01      0.43    0.18    1.00
  YS02001625YS02001629 CONDUIT    235.62     0  02:51      0.30    0.11    1.00
  YS02163301YS02001633 CONDUIT    235.54     0  02:51      0.30    0.22    1.00
  YS02163601YS02164001 CONDUIT    495.84     0  02:51      0.63    0.44    1.00
  YS02164001YS02001641 CONDUIT    495.40     0  02:51      0.63    0.68    1.00
  YS02001641YS02001644 CONDUIT    495.07     0  02:51      0.63    1.60    1.00
  YS02001647YS02001649 CONDUIT    752.89     0  02:51      0.96    0.40    1.00
  YS02006553YS02006556 CONDUIT    701.79     0  02:55      0.89    0.60    1.00
  YS02006556YS02006558 CONDUIT    702.20     0  02:55      0.89    0.55    1.00
  YSB6556YSB1171       CONDUIT     41.33     0  03:02      0.13    0.04    0.80
  YS02001907YS02006553 CONDUIT    701.90     0  02:55      0.78    0.83    1.00
  YS02006558YS02006561 CONDUIT   1128.26     0  02:55      3.99    2.49    1.00
  YS02001633YS02163601 CONDUIT    495.75     0  02:51      0.63    0.52    1.00
  YS02001644YS02001647 CONDUIT    753.05     0  02:51      0.96    0.44    1.00
  YS02001745YS02001748 CONDUIT    501.19     0  02:48      1.48    0.19    0.94
  YS02001748YS02001751 CONDUIT    397.80     0  03:01      1.03    0.20    1.00
  YS02001751YS02001754 CONDUIT    397.76     0  03:01      0.84    0.19    1.00
  YS02001754YS02001757 CONDUIT    398.02     0  03:01      0.51    0.16    1.00
  YS02001882YS02001884 CONDUIT     22.06     0  02:49      0.08    0.03    1.00
  YS02001884YS02001887 CONDUIT     28.68     0  02:47      0.05    0.04    1.00
  YS02001890YS02001895 CONDUIT    516.88     0  03:00      0.66    0.24    1.00
  YS02001895YS02001898 CONDUIT    516.89     0  03:08      0.66    0.90    1.00
  YS02001898YS02001901 CONDUIT    516.92     0  03:08      0.66    0.33    1.00
  YS02001901YS02001904 CONDUIT    516.91     0  03:00      0.66    0.80    1.00
  YS02001904YS02001907 CONDUIT    516.93     0  03:00      0.66    0.18    1.00
  YS02001887YS02001890 CONDUIT    622.96     0  03:01      0.79    1.07    1.00
  YS02001652YS02001649 CONDUIT    487.82     0  03:01      0.62    0.24    1.00
  YS02001655YS02001652 CONDUIT    485.36     0  03:01      0.89    0.24    1.00
  YS02001658YS02001655 CONDUIT    484.80     0  03:01      1.18    0.21    1.00
  YS02001661YS02001658 CONDUIT    499.89     0  03:01      1.56    0.20    1.00
  YS02001664YS02001661 CONDUIT    759.12     0  02:57      1.65    0.24    0.73
  YSB1154YSB6556       CONDUIT     41.77     0  03:01      0.19    0.08    0.69
  YSB1174YSB1171       CONDUIT     34.49     0  03:01      0.10    0.05    0.81
  YSB1171HS02004479    CONDUIT     72.19     0  03:02      0.54    0.05    0.65
  HS02004881HS02006253 CONDUIT    131.62     0  03:01      1.56    0.03    0.33
  YS02001793JiankangQianchi CONDUIT   1058.56     0  02:55     16.40    0.08    1.00
  YS02001757CaochengTiaoxuchi CONDUIT   2051.97     0  02:53      2.98    0.90    1.00
  WSF200WS02003060     CONDUIT    775.18     0  03:06      1.89    0.17    0.40
  1                    CONDUIT   1128.25     0  03:05      3.44    0.39    0.44
  2                    CONDUIT    261.83     0  02:50      6.23    0.63    0.57
  3                    CONDUIT    550.49     0  02:50     10.30    0.88    0.73
  4                    CONDUIT      0.00     0  00:00      0.00    0.00    0.00
  CC-Pump-1            PUMP       200.00     0  02:10              1.00
  CC-Pump-2            PUMP       200.00     0  02:06              1.00
  JK-Pump-1            PUMP       300.00     0  02:15              1.00
  JK-Pump-2            PUMP       300.00     0  00:00              1.00
  XR-Pump-1            PUMP        95.00     0  00:30              1.00
  XR-Pump-2            PUMP        95.00     0  00:00              1.00
  XR-Pump-3            PUMP        95.00     0  00:30              1.00
  XR-Pump-4            PUMP        95.00     0  00:00              1.00
  
  
  ***************************
  Flow Classification Summary
  ***************************
  
  -------------------------------------------------------------------------------------
                      Adjusted    ---------- Fraction of Time in Flow Class ---------- 
                       /Actual         Up    Down  Sub   Sup   Up    Down  Norm  Inlet 
  Conduit               Length    Dry  Dry   Dry   Crit  Crit  Crit  Crit  Ltd   Ctrl  
  -------------------------------------------------------------------------------------
  WS02003066WSF200        1.00   0.05  0.01  0.00  0.00  0.94  0.00  0.00  0.60  0.00
  WS02006287WS02006284    1.00   0.04  0.01  0.00  0.57  0.38  0.00  0.00  0.67  0.00
  WS02006284WS02006280    1.00   0.04  0.00  0.00  0.00  0.00  0.00  0.96  0.00  0.00
  WS02006280WS02006229    1.00   0.04  0.00  0.00  0.00  0.00  0.00  0.96  0.00  0.00
  WS02006229WS02006228    1.00   0.00  0.00  0.00  0.99  0.00  0.00  0.01  0.00  0.00
  WS02006256WS02006235    1.00   0.00  0.00  0.00  1.00  0.00  0.00  0.00  0.00  0.00
  WS02006253WS02006251    1.00   0.03  0.01  0.00  0.96  0.00  0.00  0.00  0.00  0.00
  WS02006252WS02006251    1.00   0.07  0.00  0.00  0.00  0.00  0.93  0.00  0.00  0.00
  WS02006251WS02006249    1.00   0.00  0.00  0.00  1.00  0.00  0.00  0.00  0.24  0.00
  WS02006249WS02006248    1.00   0.00  0.02  0.00  0.91  0.00  0.07  0.00  0.00  0.00
  WS02006248WS02006247    1.00   0.02  0.00  0.00  0.98  0.00  0.00  0.00  0.12  0.00
  WS02006247WS02006245    1.00   0.02  0.00  0.00  0.98  0.00  0.00  0.00  0.00  0.00
  WS02006245WS02006243    1.00   0.01  0.00  0.00  0.95  0.00  0.00  0.03  0.01  0.00
  WS02006243WS02006242    1.00   0.01  0.00  0.00  0.99  0.00  0.00  0.00  0.21  0.00
  WS02006242WS02006240    1.00   0.00  0.00  0.00  1.00  0.00  0.00  0.00  0.00  0.00
  WS02006240WS02006239    1.00   0.00  0.00  0.00  0.97  0.00  0.00  0.03  0.01  0.00
  WS02006239WS02006238    1.00   0.00  0.00  0.00  1.00  0.00  0.00  0.00  0.00  0.00
  WS02006238WS02006235    1.00   0.00  0.00  0.00  1.00  0.00  0.00  0.00  0.00  0.00
  WS02006235WS02006234    1.00   0.00  0.00  0.00  0.97  0.00  0.03  0.00  0.00  0.00
  WS02006234WS02006232    1.00   0.00  0.00  0.00  1.00  0.00  0.00  0.00  0.06  0.00
  WS02006232WS02006231    1.00   0.00  0.00  0.00  0.99  0.00  0.00  0.00  0.00  0.00
  WS02006231WS02006230    1.00   0.00  0.00  0.00  0.61  0.00  0.39  0.00  0.00  0.00
  WS02006230WS02006229    1.00   0.00  0.00  0.00  0.99  0.00  0.00  0.01  0.01  0.00
  WS02006228WS02006109    1.00   0.00  0.00  0.00  1.00  0.00  0.00  0.00  0.00  0.00
  WS02006116WS02004401    1.00   0.02  0.00  0.00  0.98  0.00  0.00  0.00  0.00  0.00
  WS02006115WS02006116    1.00   0.02  0.00  0.00  0.97  0.00  0.00  0.01  0.00  0.00
  WS02006113WS02006111    1.00   0.02  0.00  0.00  0.02  0.97  0.00  0.00  0.10  0.00
  WS02006112WS02006115    1.00   0.02  0.00  0.00  0.98  0.00  0.00  0.00  0.00  0.00
  WS02006111WS02006112    1.00   0.02  0.00  0.00  0.98  0.00  0.00  0.00  0.88  0.00
  WS02006110WS02006113    1.00   0.01  0.01  0.00  0.98  0.00  0.00  0.00  0.00  0.00
  WS02006109WS02006110    1.00   0.00  0.01  0.00  0.98  0.00  0.01  0.00  0.00  0.00
  WS02004411WS02004412    1.00   0.04  0.00  0.00  0.96  0.00  0.00  0.00  0.00  0.00
  WS02004401WS02004402    1.00   0.02  0.00  0.00  0.98  0.00  0.00  0.00  0.00  0.00
  WS02004413WS02003067    1.00   0.04  0.01  0.00  0.00  0.00  0.95  0.00  0.00  0.00
  WS02004412WS02004413    1.00   0.04  0.00  0.00  0.96  0.00  0.00  0.00  0.03  0.00
  WS02004410WS02004411    1.00   0.04  0.00  0.00  0.96  0.00  0.00  0.00  0.04  0.00
  WS02004409WS02004410    1.00   0.03  0.00  0.00  0.97  0.00  0.00  0.00  0.03  0.00
  WS02004407WS02004409    1.00   0.03  0.00  0.00  0.96  0.00  0.00  0.00  0.89  0.00
  WS02004406WS02004407    1.00   0.00  0.03  0.00  0.97  0.00  0.00  0.00  0.00  0.00
  WS02004405WS02004406    1.00   0.00  0.00  0.00  1.00  0.00  0.00  0.00  0.01  0.00
  WS02004404WS02004405    1.00   0.00  0.00  0.00  1.00  0.00  0.00  0.00  0.00  0.00
  WS02004403WS02004404    1.00   0.00  0.02  0.00  0.98  0.00  0.00  0.00  0.01  0.00
  WS02004402WS02004403    1.00   0.02  0.00  0.00  0.98  0.00  0.00  0.00  0.00  0.00
  WS02004139WS02001211    1.00   0.00  0.00  0.00  1.00  0.00  0.00  0.00  0.00  0.00
  WS02004138WS02004139    1.00   0.00  0.00  0.00  0.99  0.01  0.00  0.00  1.00  0.00
  WS02003067WS02003066    1.00   0.05  0.00  0.00  0.95  0.00  0.00  0.00  0.00  0.00
  WS02001213WS02003059    1.00   0.00  0.00  0.00  0.99  0.00  0.00  0.00  0.00  0.00
  WS02001212WS02001213    1.00   0.00  0.00  0.00  0.91  0.00  0.09  0.00  0.00  0.00
  WS02001211WS02001212    1.00   0.00  0.00  0.00  1.00  0.00  0.00  0.00  0.00  0.00
  WS02003072WS02003073    1.00   0.00  0.00  0.00  0.00  0.00  0.00  1.00  0.00  0.00
  WS02003069WS02003072    1.00   0.00  0.00  0.00  0.99  0.01  0.00  0.00  0.19  0.00
  WS02003060WS02003069    1.00   0.00  0.00  0.00  0.98  0.02  0.00  0.00  0.09  0.00
  WS02003059WS02003060    1.00   0.00  0.00  0.00  1.00  0.00  0.00  0.00  0.01  0.00
  HS02004901HS02004770    1.00   0.04  0.00  0.00  0.96  0.00  0.00  0.00  0.01  0.00
  HS02004876HS02004881    1.00   0.02  0.00  0.00  0.87  0.11  0.00  0.00  0.00  0.00
  HS02004870HS02004876    1.00   0.01  0.00  0.00  0.99  0.00  0.00  0.00  0.95  0.00
  HS02004842HS02004848    1.00   0.00  0.04  0.00  0.96  0.00  0.00  0.00  0.58  0.00
  HS02004837HS02004842    1.00   0.00  0.00  0.00  0.99  0.01  0.00  0.00  0.11  0.00
  HS02004830HS02004837    1.00   0.00  0.00  0.00  1.00  0.00  0.00  0.00  0.99  0.00
  HS02004824HS02004830    1.00   0.00  0.00  0.00  1.00  0.00  0.00  0.00  0.01  0.00
  HS02004817HS02004824    1.00   0.00  0.00  0.00  1.00  0.00  0.00  0.00  0.98  0.00
  HS02004770HS02004777    1.00   0.00  0.04  0.00  0.96  0.00  0.00  0.00  0.04  0.00
  HS02004799HS02004480    1.00   0.00  0.02  0.00  0.95  0.00  0.02  0.00  0.00  0.00
  HS02004792HS02004799    1.00   0.00  0.00  0.00  0.99  0.01  0.00  0.00  0.98  0.00
  HS02004788HS02004792    1.00   0.00  0.00  0.00  0.99  0.01  0.00  0.00  0.98  0.00
  HS02004785HS02004788    1.00   0.00  0.00  0.00  1.00  0.00  0.00  0.00  0.00  0.00
  HS02004777HS02004785    1.00   0.00  0.00  0.00  1.00  0.00  0.00  0.00  0.15  0.00
  HS02004480HS02004478    1.00   0.04  0.00  0.00  0.65  0.00  0.00  0.31  0.00  0.00
  HS02004479HS02004480    1.00   0.03  0.00  0.00  0.97  0.00  0.00  0.00  0.13  0.00
  HS02004862HS02004870    1.00   0.00  0.00  0.00  1.00  0.00  0.00  0.00  0.06  0.00
  HS02004848HS02004852    1.00   0.04  0.00  0.00  0.96  0.00  0.00  0.00  0.64  0.00
  HS02004856HS02004862    1.00   0.00  0.05  0.00  0.95  0.00  0.00  0.00  0.79  0.00
  HS02004852HS02004856    1.00   0.04  0.00  0.00  0.96  0.00  0.00  0.00  0.81  0.00
  HS02004802HS02004478    1.00   0.04  0.00  0.00  0.96  0.00  0.00  0.00  0.03  0.00
  HS02004478WS02006287    1.00   0.05  0.00  0.00  0.70  0.25  0.00  0.00  0.66  0.00
  HS02004817HS02004807    1.00   0.00  0.04  0.00  0.96  0.00  0.00  0.00  0.01  0.00
  HS02004807HS02004802    1.00   0.04  0.00  0.00  0.96  0.00  0.00  0.00  0.00  0.00
  YS02001759YS02001757    1.00   0.00  0.00  0.00  1.00  0.00  0.00  0.00  0.17  0.00
  YS02001762YS02001759    1.00   0.00  0.00  0.00  1.00  0.00  0.00  0.00  0.04  0.00
  YS02001765YS02001762    1.00   0.00  0.00  0.00  1.00  0.00  0.00  0.00  0.17  0.00
  YS02001770YS02001767    1.00   0.00  0.00  0.00  1.00  0.00  0.00  0.00  0.00  0.00
  YS02001774YS02001770    1.00   0.00  0.04  0.00  0.96  0.00  0.00  0.00  0.04  0.00
  YS02001779YS02001774    1.00   0.00  0.00  0.00  1.00  0.00  0.00  0.00  0.22  0.00
  YS02001649YS02001757    1.00   0.00  0.00  0.00  1.00  0.00  0.00  0.00  0.17  0.00
  YS02001767YS02001765    1.00   0.00  0.00  0.00  1.00  0.00  0.00  0.00  0.01  0.00
  YS02006561YS02001783    1.00   0.05  0.00  0.00  0.41  0.54  0.00  0.00  0.50  0.00
  YS02001783YS02001784    1.00   0.00  0.05  0.00  0.95  0.00  0.00  0.00  0.01  0.00
  YS02001784YS02001785    1.00   0.00  0.00  0.00  1.00  0.00  0.00  0.00  0.21  0.00
  YS02001788YS02001790    1.00   0.00  0.00  0.00  0.46  0.54  0.00  0.00  0.48  0.00
  YS02001790YS02001791    1.00   0.00  0.00  0.00  0.44  0.56  0.00  0.00  0.36  0.00
  YS02001791YS02001793    1.00   0.00  0.00  0.00  0.44  0.56  0.00  0.00  0.01  0.00
  YS02001910YS02001907    1.00   0.00  0.00  0.00  0.98  0.00  0.00  0.02  0.13  0.00
  YS02001786YS02001788    1.00   0.00  0.00  0.00  0.44  0.56  0.00  0.00  0.00  0.00
  YS02001915YS02001910    1.00   0.00  0.00  0.00  0.99  0.01  0.00  0.00  0.19  0.00
  YS02001918YS02001915    1.00   0.00  0.01  0.00  0.98  0.01  0.00  0.00  0.57  0.00
  YS02001923YS02001920    1.00   0.00  0.00  0.00  1.00  0.00  0.00  0.00  0.83  0.00
  YS02001926YS02001923    1.00   0.00  0.03  0.00  0.16  0.00  0.81  0.00  0.00  0.00
  YS02001929YS02001926    1.00   0.00  0.04  0.00  0.96  0.00  0.00  0.00  0.76  0.00
  YS02001920YS02001918    1.00   0.00  0.01  0.00  0.99  0.00  0.00  0.00  0.00  0.00
  YS02001629YS02163301    1.00   0.05  0.00  0.00  0.95  0.00  0.00  0.00  0.00  0.00
  YS02001619YS02001622    1.00   0.04  0.00  0.00  0.96  0.00  0.00  0.00  0.00  0.00
  YS02001622YS02001625    1.00   0.04  0.00  0.00  0.96  0.00  0.00  0.00  0.08  0.00
  YS02001625YS02001629    1.00   0.04  0.02  0.00  0.93  0.00  0.02  0.00  0.00  0.00
  YS02163301YS02001633    1.00   0.00  0.05  0.00  0.95  0.00  0.00  0.00  0.00  0.00
  YS02163601YS02164001    1.00   0.00  0.03  0.00  0.97  0.00  0.00  0.00  0.00  0.00
  YS02164001YS02001641    1.00   0.01  0.02  0.00  0.97  0.00  0.00  0.00  0.06  0.00
  YS02001641YS02001644    1.00   0.00  0.01  0.00  0.99  0.00  0.00  0.00  0.00  0.00
  YS02001647YS02001649    1.00   0.00  0.05  0.00  0.95  0.00  0.00  0.00  0.01  0.00
  YS02006553YS02006556    1.00   0.01  0.00  0.00  0.99  0.00  0.00  0.00  0.03  0.00
  YS02006556YS02006558    1.00   0.00  0.00  0.00  1.00  0.00  0.00  0.00  0.00  0.00
  YSB6556YSB1171          1.00   0.03  0.01  0.00  0.96  0.00  0.00  0.00  0.00  0.00
  YS02001907YS02006553    1.00   0.00  0.02  0.00  0.98  0.00  0.00  0.00  0.00  0.00
  YS02006558YS02006561    1.00   0.05  0.00  0.00  0.18  0.76  0.00  0.00  0.44  0.00
  YS02001633YS02163601    1.00   0.00  0.01  0.00  0.99  0.00  0.00  0.00  0.16  0.00
  YS02001644YS02001647    1.00   0.00  0.05  0.00  0.95  0.00  0.00  0.00  0.00  0.00
  YS02001745YS02001748    1.00   0.00  0.00  0.00  0.88  0.01  0.00  0.11  0.05  0.00
  YS02001748YS02001751    1.00   0.00  0.00  0.00  0.97  0.03  0.00  0.00  0.15  0.00
  YS02001751YS02001754    1.00   0.00  0.00  0.00  0.94  0.00  0.00  0.06  0.02  0.00
  YS02001754YS02001757    1.00   0.00  0.00  0.00  0.99  0.01  0.00  0.00  0.21  0.00
  YS02001882YS02001884    1.00   0.05  0.00  0.00  0.95  0.00  0.00  0.00  0.00  0.00
  YS02001884YS02001887    1.00   0.03  0.01  0.00  0.96  0.00  0.00  0.00  0.00  0.00
  YS02001890YS02001895    1.00   0.00  0.05  0.00  0.95  0.00  0.00  0.00  0.00  0.00
  YS02001895YS02001898    1.00   0.05  0.00  0.00  0.94  0.00  0.01  0.00  0.00  0.00
  YS02001898YS02001901    1.00   0.05  0.00  0.00  0.95  0.00  0.00  0.00  0.03  0.00
  YS02001901YS02001904    1.00   0.05  0.00  0.00  0.95  0.00  0.00  0.00  0.00  0.00
  YS02001904YS02001907    1.00   0.00  0.05  0.00  0.95  0.00  0.00  0.00  0.00  0.00
  YS02001887YS02001890    1.00   0.00  0.00  0.00  0.98  0.00  0.02  0.00  0.00  0.00
  YS02001652YS02001649    1.00   0.00  0.00  0.00  1.00  0.00  0.00  0.00  0.19  0.00
  YS02001655YS02001652    1.00   0.00  0.00  0.00  0.94  0.00  0.00  0.06  0.03  0.00
  YS02001658YS02001655    1.00   0.00  0.04  0.00  0.93  0.03  0.00  0.00  0.13  0.00
  YS02001661YS02001658    1.00   0.04  0.00  0.00  0.87  0.08  0.00  0.00  0.09  0.00
  YS02001664YS02001661    1.00   0.04  0.00  0.00  0.84  0.12  0.00  0.00  0.23  0.00
  YSB1154YSB6556          1.00   0.04  0.00  0.00  0.96  0.00  0.00  0.00  0.02  0.00
  YSB1174YSB1171          1.00   0.03  0.01  0.00  0.97  0.00  0.00  0.00  0.00  0.00
  YSB1171HS02004479       1.00   0.03  0.00  0.00  0.97  0.00  0.00  0.00  0.11  0.00
  HS02004881HS02006253    1.00   0.03  0.00  0.00  0.78  0.01  0.00  0.18  0.62  0.00
  YS02001793JiankangQianchi    1.00   0.00  0.00  0.00  0.62  0.37  0.00  0.00  0.17  0.00
  YS02001757CaochengTiaoxuchi    1.00   0.00  0.07  0.00  0.83  0.09  0.00  0.00  0.00  0.00
  WSF200WS02003060        1.00   0.00  0.05  0.00  0.73  0.22  0.00  0.00  0.30  0.00
  1                       1.00   0.00  0.00  0.00  0.00  1.00  0.00  0.00  0.36  0.00
  2                       1.00   0.51  0.00  0.00  0.00  0.49  0.00  0.00  0.10  0.00
  3                       1.00   0.13  0.00  0.00  0.00  0.87  0.00  0.00  0.27  0.00
  4                       1.00   1.00  0.00  0.00  0.00  0.00  0.00  0.00  0.00  0.00
  
  
  *************************
  Conduit Surcharge Summary
  *************************
  
  ----------------------------------------------------------------------------
                                                           Hours        Hours 
                         --------- Hours Full --------   Above Full   Capacity
  Conduit                Both Ends  Upstream  Dnstream   Normal Flow   Limited
  ----------------------------------------------------------------------------
  WS02006229WS02006228        2.50      2.67      2.50      4.40         2.50
  WS02006256WS02006235        6.05      6.05      7.39      2.88         0.01
  WS02006253WS02006251        0.04      0.04      0.37      0.01         0.01
  WS02006252WS02006251        1.64      1.64      2.75      2.46         0.01
  WS02006251WS02006249        0.01      0.06      0.01      1.89         0.01
  WS02006249WS02006248        0.01      0.01      0.01      4.44         0.01
  WS02006248WS02006247        0.01      0.01      0.21      0.01         0.01
  WS02006247WS02006245        0.15      0.45      0.15      4.91         0.15
  WS02006245WS02006243        0.39      0.39      0.90      0.05         0.01
  WS02006243WS02006242        0.98      0.98      2.05      0.01         0.01
  WS02006242WS02006240        1.21      1.21      2.41      2.33         0.01
  WS02006240WS02006239        1.39      1.39      1.50      0.04         0.01
  WS02006239WS02006238        2.31      2.31      2.42      0.04         0.01
  WS02006238WS02006235        2.32      2.32      2.65      0.01         0.01
  WS02006235WS02006234        1.23      1.23      2.15      6.07         0.01
  WS02006234WS02006232        1.42      1.42      2.71      0.01         0.01
  WS02006232WS02006231        1.09      1.09      2.71      0.01         0.01
  WS02006231WS02006230        0.88      0.88      1.12      6.06         0.01
  WS02006230WS02006229        3.20      3.91      3.20      6.16         3.20
  WS02006228WS02006109        2.59      2.96      2.59      5.63         2.59
  WS02006116WS02004401        0.32      0.32      0.33      0.22         0.24
  WS02006115WS02006116        0.09      0.09      0.09      0.01         0.02
  WS02006112WS02006115        0.06      0.06      1.27      0.01         0.01
  WS02006111WS02006112        0.01      0.01      4.72      0.01         0.01
  WS02006110WS02006113        0.01      0.01      2.81      0.01         0.01
  WS02006109WS02006110        1.20      1.20      2.96      1.20         0.01
  WS02004411WS02004412        0.01      0.01      0.01      0.30         0.01
  WS02004401WS02004402        0.33      0.33      0.39      0.01         0.01
  WS02004410WS02004411        0.01      0.01      0.01      0.19         0.01
  WS02004409WS02004410        0.01      0.01      0.01      0.03         0.01
  WS02004406WS02004407        0.01      0.01      0.68      0.01         0.01
  WS02004405WS02004406        0.68      0.79      0.68      1.23         0.68
  WS02004404WS02004405        0.79      0.89      0.79      5.90         0.79
  WS02004403WS02004404        0.40      0.40      0.89      0.01         0.01
  WS02004402WS02004403        0.39      0.39      0.40      0.31         0.32
  WS02003072WS02003073        0.01      0.01      0.01      5.56         0.01
  HS02004876HS02004881        0.01      0.01      0.01      0.17         0.01
  HS02004785HS02004788        0.01      0.01      0.01      0.10         0.01
  HS02004480HS02004478        0.01      0.01      0.01      0.52         0.01
  YS02001759YS02001757        5.54      5.54      5.62      0.01         0.01
  YS02001762YS02001759        5.51      5.51      5.54      0.01         0.01
  YS02001765YS02001762        5.48      5.48      5.51      0.01         0.01
  YS02001770YS02001767        5.42      5.43      5.44      0.35         0.82
  YS02001774YS02001770        5.31      5.31      5.50      0.01         0.01
  YS02001779YS02001774        5.21      5.21      5.50      0.01         0.01
  YS02001649YS02001757        5.52      5.52      5.62      0.01         0.01
  YS02001767YS02001765        5.44      5.44      5.48      0.01         0.01
  YS02006561YS02001783        0.81      0.81      1.37      0.01         0.01
  YS02001783YS02001784        1.35      1.37      1.45      1.36         1.16
  YS02001784YS02001785        1.28      1.45      1.28      2.30         1.27
  YS02001788YS02001790        1.22      1.22      2.20      0.01         0.01
  YS02001790YS02001791        2.20      2.20      2.33      0.77         0.66
  YS02001791YS02001793        2.33      2.33      2.75      0.01         0.01
  YS02001910YS02001907        1.20      1.20      1.66      0.01         0.01
  YS02001786YS02001788        1.22      1.28      1.22      1.88         1.22
  YS02001915YS02001910        0.98      0.98      1.20      0.01         0.01
  YS02001918YS02001915        0.73      0.73      0.98      0.01         0.01
  YS02001923YS02001920        0.56      0.56      0.76      0.01         0.01
  YS02001920YS02001918        0.73      0.73      0.76      0.01         0.01
  YS02001629YS02163301        5.34      5.34      5.43      0.01         0.01
  YS02001619YS02001622        5.13      5.13      5.13      0.01         0.01
  YS02001622YS02001625        5.13      5.13      5.28      0.01         0.01
  YS02001625YS02001629        5.13      5.13      5.28      0.01         0.01
  YS02163301YS02001633        5.43      5.43      5.49      0.01         0.01
  YS02163601YS02164001        5.49      5.49      5.52      0.01         0.01
  YS02164001YS02001641        5.49      5.49      5.49      0.01         0.01
  YS02001641YS02001644        5.49      5.49      5.50      1.45         1.48
  YS02001647YS02001649        5.26      5.26      5.52      0.01         0.01
  YS02006553YS02006556        1.41      1.41      1.71      0.01         0.01
  YS02006556YS02006558        1.54      1.54      1.78      0.01         0.01
  YS02001907YS02006553        2.24      2.24      2.45      0.01         0.01
  YS02006558YS02006561        1.01      1.38      1.01      2.09         1.01
  YS02001633YS02163601        5.48      5.48      5.52      0.01         0.01
  YS02001644YS02001647        5.26      5.26      5.50      0.01         0.01
  YS02001745YS02001748        0.01      0.01      4.99      0.01         0.01
  YS02001748YS02001751        5.02      5.02      5.10      0.01         0.01
  YS02001751YS02001754        5.10      5.10      5.22      0.01         0.01
  YS02001754YS02001757        5.24      5.24      5.62      0.01         0.01
  YS02001882YS02001884        1.00      1.00      1.03      0.01         0.01
  YS02001884YS02001887        1.09      1.09      1.12      0.01         0.01
  YS02001890YS02001895        0.97      0.97      1.22      0.01         0.01
  YS02001895YS02001898        0.95      0.95      0.97      0.01         0.01
  YS02001898YS02001901        0.97      0.97      1.08      0.01         0.01
  YS02001901YS02001904        1.06      1.06      1.08      0.01         0.01
  YS02001904YS02001907        1.06      1.06      1.74      0.01         0.01
  YS02001887YS02001890        1.15      1.15      1.18      0.07         0.01
  YS02001652YS02001649        5.26      5.26      5.52      0.01         0.01
  YS02001655YS02001652        5.13      5.13      5.24      0.01         0.01
  YS02001658YS02001655        5.01      5.01      5.13      0.01         0.01
  YS02001661YS02001658        0.23      0.23      5.01      0.01         0.01
  YS02001664YS02001661        0.01      0.01      1.15      0.01         0.01
  YS02001793JiankangQianchi        2.73      2.73      3.62      0.01         0.01
  YS02001757CaochengTiaoxuchi        4.78      4.78      5.62      0.01         0.01
  
  
  ***************
  Pumping Summary
  ***************
  
  ---------------------------------------------------------------------------------------------------------
                                                  Min       Avg       Max     Total     Power    % Time Off
                        Percent   Number of      Flow      Flow      Flow    Volume     Usage    Pump Curve
  Pump                 Utilized   Start-Ups       LPS       LPS       LPS  10^6 ltr     Kw-hr    Low   High
  ---------------------------------------------------------------------------------------------------------
  CC-Pump-1               68.03           3      0.00    142.74    200.00     2.699      4.62    0.0   12.9
  CC-Pump-2               59.52           5      0.00    150.86    200.00     2.482      4.48    0.0   14.7
  JK-Pump-1               89.36           5      0.00    199.35    300.00     3.772     43.57    0.0    0.0
  JK-Pump-2               76.60           7      0.00    192.48    300.00     3.304     40.41    0.0    0.0
  XR-Pump-1               89.34           8      0.00     75.06     95.00     1.852     13.13    0.0    0.0
  XR-Pump-2               85.10           7      0.00     67.38     95.00     1.596     12.24    0.0    0.0
  XR-Pump-3               68.07          10      0.00     61.02     95.00     1.140      9.40    0.0    0.0
  XR-Pump-4               99.99           5      0.00     79.56     95.00     2.166     16.15    0.0    0.0
  

  Analysis begun on:  Wed Dec 22 20:09:27 2021
  Analysis ended on:  Wed Dec 22 20:09:32 2021
  Total elapsed time: 00:00:05