
  EPA STORM WATER MANAGEMENT MODEL - VERSION 5.1 (Build 5.3.0.dev0)
  --------------------------------------------------------------

  WARNING 04: minimum elevation drop used for Conduit WS02004404WS02004405
  WARNING 03: negative offset ignored for Link YS02001904YS02001907
  
  *********************************************************
  NOTE: The summary statistics displayed in this report are
  based on results found at every computational time step,  
  not just on results from each reporting time step.
  *********************************************************
  
  ****************
  Analysis Options
  ****************
  Flow Units ............... LPS
  Process Models:
    Rainfall/Runoff ........ YES
    RDII ................... NO
    Snowmelt ............... NO
    Groundwater ............ NO
    Flow Routing ........... YES
    Ponding Allowed ........ NO
    Water Quality .......... NO
  Infiltration Method ...... HORTON
  Flow Routing Method ...... DYNWAVE
  Surcharge Method ......... EXTRAN
  Starting Date ............ 08/28/2015 08:00:00
  Ending Date .............. 08/28/2015 15:50:00
  Antecedent Dry Days ...... 8.0
  Report Time Step ......... 00:01:00
  Wet Time Step ............ 00:01:00
  Dry Time Step ............ 00:01:00
  Routing Time Step ........ 5.00 sec
  Variable Time Step ....... YES
  Maximum Trials ........... 8
  Number of Threads ........ 4
  Head Tolerance ........... 0.001500 m
  
  
  **************************        Volume         Depth
  Runoff Quantity Continuity     hectare-m            mm
  **************************     ---------       -------
  Total Precipitation ......         6.144        13.452
  Evaporation Loss .........         0.000         0.000
  Infiltration Loss ........         1.572         3.442
  Surface Runoff ...........         3.480         7.619
  Final Storage ............         1.093         2.393
  Continuity Error (%) .....        -0.016
  
  
  **************************        Volume        Volume
  Flow Routing Continuity        hectare-m      10^6 ltr
  **************************     ---------     ---------
  Dry Weather Inflow .......         0.616         6.165
  Wet Weather Inflow .......         3.479        34.789
  Groundwater Inflow .......         0.000         0.000
  RDII Inflow ..............         0.000         0.000
  External Inflow ..........         0.102         1.024
  External Outflow .........         2.297        22.969
  Flooding Loss ............         1.455        14.547
  Evaporation Loss .........         0.000         0.000
  Exfiltration Loss ........         0.000         0.000
  Initial Stored Volume ....         0.076         0.761
  Final Stored Volume ......         0.604         6.037
  Continuity Error (%) .....        -1.907
  
  
  *************************
  Highest Continuity Errors
  *************************
  Node HS02004842 (15.27%)
  Node YS02001884 (11.89%)
  Node JK-storage (-7.59%)
  Node YSB1171 (2.79%)
  Node HS02004817 (2.78%)
  
  
  ***************************
  Time-Step Critical Elements
  ***************************
  Link 3 (60.67%)
  Link WS02006252WS02006251 (29.65%)
  Link WS02006238WS02006235 (2.89%)
  Link WS02006280WS02006229 (1.40%)
  
  
  ********************************
  Highest Flow Instability Indexes
  ********************************
  Link YS02163301YS02001633 (41)
  Link YS02001619YS02001622 (40)
  Link YS02163601YS02164001 (40)
  Link YS02001629YS02163301 (40)
  Link YS02164001YS02001641 (37)
  
  
  *************************
  Routing Time Step Summary
  *************************
  Minimum Time Step           :     0.33 sec
  Average Time Step           :     0.78 sec
  Maximum Time Step           :     5.00 sec
  Percent in Steady State     :     0.00
  Average Iterations per Step :     4.72
  Percent Not Converging      :    23.20
  
  
  ***************************
  Subcatchment Runoff Summary
  ***************************
  
  ------------------------------------------------------------------------------------------------------------------------------
                            Total      Total      Total      Total     Imperv       Perv      Total       Total     Peak  Runoff
                           Precip      Runon       Evap      Infil     Runoff     Runoff     Runoff      Runoff   Runoff   Coeff
  Subcatchment                 mm         mm         mm         mm         mm         mm         mm    10^6 ltr      LPS
  ------------------------------------------------------------------------------------------------------------------------------
  sub0                      13.45       0.00       0.00       0.89      11.25       0.05      11.30        0.01     3.67   0.840
  sub1                      13.45       0.00       0.00       1.45      10.71       0.03      10.74        0.07    24.31   0.799
  sub2                      13.45       0.00       0.00       4.95       7.56       0.02       7.58        0.07    22.93   0.564
  sub3                      13.45       0.00       0.00       4.96       7.52       0.02       7.54        0.17    51.30   0.560
  sub4                      13.45       0.00       0.00       1.46      10.54       0.02      10.56        0.22    61.94   0.785
  sub5                      13.45       0.00       0.00       0.91      11.19       0.03      11.22        0.13    43.21   0.834
  sub7                      13.45       0.00       0.00       1.17      10.98       0.04      11.03        0.04    13.69   0.820
  sub8                      13.45       0.00       0.00       1.17      10.97       0.04      11.01        0.07    25.15   0.819
  sub9                      13.45       0.00       0.00       1.17      10.97       0.04      11.01        0.05    18.81   0.818
  sub10                     13.45       0.00       0.00       1.04      11.08       0.03      11.11        0.12    42.29   0.826
  sub11                     13.45       0.00       0.00       1.04      11.10       0.04      11.14        0.13    46.68   0.828
  sub12                     13.45       0.00       0.00       1.69      10.51       0.06      10.58        0.09    35.94   0.786
  sub14                     13.45       0.00       0.00       1.17      10.97       0.04      11.01        0.10    37.02   0.818
  sub15                     13.45       0.00       0.00       4.00       8.43       0.04       8.47        0.15    51.03   0.630
  sub16                     13.45       0.00       0.00       4.38       8.09       0.06       8.15        0.09    32.58   0.606
  sub17                     13.45       0.00       0.00       4.25       8.21       0.06       8.27        0.07    26.73   0.615
  sub22                     13.45       0.00       0.00       5.74       6.88       0.04       6.92        0.44   159.06   0.514
  sub23                     13.45       0.00       0.00       4.93       7.60       0.05       7.65        0.36   133.95   0.569
  sub60                     13.45       0.00       0.00       1.61       8.73       0.00       8.74        2.65   387.96   0.649
  sub61                     13.45       0.00       0.00       2.28       8.88       0.00       8.88        2.74   483.52   0.660
  sub62                     13.45       0.00       0.00       1.07       9.65       0.00       9.66        2.97   496.42   0.718
  sub63                     13.45       0.00       0.00       3.90       7.77       0.00       7.77        2.35   446.68   0.578
  sub64                     13.45       0.00       0.00       2.01       8.38       0.00       8.38        2.55   368.35   0.623
  sub65                     13.45       0.00       0.00       1.75       8.52       0.00       8.52        2.62   373.60   0.634
  sub66                     13.45       0.00       0.00       3.90       7.19       0.00       7.19        2.21   337.96   0.535
  sub67                     13.45       0.00       0.00       1.07      10.19       0.01      10.19        3.15   622.58   0.758
  sub68                     13.45       0.00       0.00       1.88       9.34       0.01       9.34        2.87   531.38   0.694
  sub69                     13.45       0.00       0.00       2.01       9.68       0.01       9.69        2.26   503.32   0.720
  sub70                     13.45       9.89       0.00       7.67      12.93       0.26      13.20        3.02   423.72   0.565
  sub71                     13.45       0.00       0.00       1.07       9.40       0.00       9.40        2.22   347.35   0.699
  sub72                     13.45       0.00       0.00       0.94       7.49       0.00       7.50        1.53   163.23   0.557
  sub73                     13.45      12.84       0.00       8.67      14.26       0.27      14.53        3.41   375.92   0.552
  sub74                     13.45       0.00       0.00      10.09       2.88       0.00       2.89        1.15   273.25   0.215
  
  
  ******************
  Node Depth Summary
  ******************
  
  ---------------------------------------------------------------------------------
                                 Average  Maximum  Maximum  Time of Max    Reported
                                   Depth    Depth      HGL   Occurrence   Max Depth
  Node                 Type       Meters   Meters   Meters  days hr:min      Meters
  ---------------------------------------------------------------------------------
  WS02001211           JUNCTION     0.68     0.81     5.65     0  03:00        0.81
  WS02001212           JUNCTION     0.41     0.53     5.60     0  03:01        0.53
  WS02001213           JUNCTION     0.65     0.80     5.56     0  03:01        0.80
  WS02003069           JUNCTION     0.47     0.66     5.24     0  03:03        0.66
  WS02003072           JUNCTION     0.54     0.71     5.08     0  03:03        0.71
  WS02003073           JUNCTION     0.33     0.44     4.51     0  03:04        0.44
  WS02003060           JUNCTION     0.42     0.58     5.51     0  03:02        0.58
  WS02003066           JUNCTION     0.25     0.36     5.91     0  03:05        0.36
  WS02003059           JUNCTION     0.70     0.86     5.54     0  03:02        0.86
  WS02003067           JUNCTION     0.61     0.79     6.11     0  03:04        0.79
  WS02004401           JUNCTION     0.73     1.10     7.10     0  03:03        1.10
  WS02004402           JUNCTION     0.76     1.11     7.07     0  03:03        1.11
  WS02004403           JUNCTION     0.78     1.10     7.03     0  03:03        1.10
  WS02004404           JUNCTION     0.85     1.15     7.00     0  03:03        1.15
  WS02004406           JUNCTION     0.85     1.10     6.93     0  03:03        1.10
  WS02004409           JUNCTION     0.55     0.85     6.62     0  03:04        0.85
  WS02004410           JUNCTION     0.56     0.85     6.57     0  03:04        0.85
  WS02004411           JUNCTION     0.58     0.84     6.52     0  03:04        0.84
  WS02004412           JUNCTION     0.59     0.83     6.47     0  03:04        0.83
  WS02004413           JUNCTION     0.74     0.97     6.44     0  03:04        0.97
  WS02004405           JUNCTION     0.85     1.13     6.98     0  03:03        1.13
  WS02006109           JUNCTION     0.82     1.26     7.88     0  03:02        1.25
  WS02006110           JUNCTION     0.80     1.11     7.69     0  03:02        1.10
  WS02006111           JUNCTION     0.25     0.60     7.30     0  03:03        0.60
  WS02006112           JUNCTION     0.91     1.38     7.26     0  03:03        1.37
  WS02006113           JUNCTION     0.38     0.61     7.50     0  03:02        0.61
  WS02006115           JUNCTION     0.63     1.06     7.20     0  03:03        1.06
  WS02006116           JUNCTION     0.71     1.11     7.15     0  03:03        1.11
  WS02006230           JUNCTION     0.82     1.38     8.13     0  03:02        1.37
  WS02006231           JUNCTION     0.56     1.02     8.14     0  03:02        1.00
  WS02006232           JUNCTION     0.70     1.11     8.15     0  03:02        1.09
  WS02006234           JUNCTION     0.62     1.00     8.15     0  03:02        0.99
  WS02006235           JUNCTION     0.66     1.00     8.16     0  03:02        0.99
  WS02006238           JUNCTION     0.68     1.03     8.17     0  03:02        1.01
  WS02006240           JUNCTION     0.59     0.89     8.18     0  03:02        0.88
  WS02006242           JUNCTION     0.64     0.93     8.20     0  03:02        0.92
  WS02006243           JUNCTION     0.53     0.78     8.20     0  03:02        0.78
  WS02006245           JUNCTION     0.50     0.74     8.23     0  02:50        0.74
  WS02006247           JUNCTION     0.51     0.74     8.24     0  02:50        0.74
  WS02006248           JUNCTION     0.45     0.67     8.26     0  02:50        0.67
  WS02006249           JUNCTION     0.47     0.67     8.27     0  02:50        0.67
  WS02006239           JUNCTION     0.64     0.97     8.18     0  03:02        0.96
  WS02006251           JUNCTION     0.47     0.73     8.40     0  02:50        0.73
  WS02006252           JUNCTION     0.42     0.59     8.84     0  05:14        0.59
  WS02006253           JUNCTION     0.50     0.76     8.41     0  02:50        0.76
  WS02006256           JUNCTION     1.09     2.35     9.28     0  00:00        1.23
  WS02004138           JUNCTION     0.16     0.19     7.44     0  00:50        0.19
  WS02004407           JUNCTION     0.25     0.36     6.68     0  03:03        0.36
  WS02006228           JUNCTION     0.84     1.38     8.03     0  03:02        1.36
  WS02006229           JUNCTION     0.82     1.41     8.11     0  03:02        1.41
  WS02006280           JUNCTION     0.08     0.24     8.52     0  03:02        0.24
  WS02006284           JUNCTION     0.38     0.63     9.02     0  03:02        0.62
  WS02006287           JUNCTION     0.11     0.37     9.32     0  03:02        0.37
  WSF200               JUNCTION     0.25     0.40     5.63     0  03:05        0.40
  HS02004901           JUNCTION     0.14     0.35    10.17     0  03:01        0.35
  HS02004881           JUNCTION     0.01     0.05     9.08     0  03:01        0.05
  HS02004876           JUNCTION     0.05     0.15     9.18     0  03:01        0.15
  HS02004870           JUNCTION     0.02     0.09     9.37     0  03:01        0.09
  HS02004862           JUNCTION     0.02     0.10     9.49     0  03:01        0.10
  HS02004856           JUNCTION     0.08     0.15     9.57     0  03:01        0.15
  HS02004852           JUNCTION     0.01     0.07     9.58     0  03:02        0.07
  HS02004848           JUNCTION     0.01     0.06     9.67     0  03:01        0.06
  HS02004842           JUNCTION     0.34     0.40     9.67     0  03:01        0.40
  HS02004837           JUNCTION     0.03     0.09     9.67     0  03:01        0.09
  HS02004830           JUNCTION     0.04     0.10     9.57     0  03:01        0.10
  HS02004824           JUNCTION     0.03     0.11     9.51     0  03:02        0.11
  HS02004817           JUNCTION     0.45     0.67     9.52     0  03:02        0.67
  HS02004807           JUNCTION     0.14     0.34     9.51     0  03:02        0.34
  HS02004802           JUNCTION     0.18     0.38     9.50     0  03:02        0.38
  HS02004799           JUNCTION     0.14     0.43     9.65     0  03:01        0.43
  HS02004792           JUNCTION     0.04     0.20     9.72     0  03:01        0.19
  HS02004788           JUNCTION     0.03     0.14    10.04     0  03:02        0.14
  HS02004785           JUNCTION     0.06     0.23    10.13     0  03:02        0.23
  HS02004777           JUNCTION     0.16     0.37    10.17     0  03:01        0.37
  HS02004770           JUNCTION     0.13     0.34    10.17     0  03:01        0.34
  HS02004480           JUNCTION     0.10     0.35     9.59     0  03:01        0.35
  HS02004479           JUNCTION     0.13     0.39     9.60     0  03:01        0.39
  HS02004478           JUNCTION     0.07     0.26     9.48     0  03:01        0.26
  YS02001745           JUNCTION     0.68     0.89     8.40     0  03:33        0.89
  YS02001748           JUNCTION     1.06     2.27     9.35     0  02:46        1.33
  YS02001751           JUNCTION     1.25     2.20     9.08     0  02:44        1.53
  YS02001754           JUNCTION     1.50     2.20     8.81     0  02:46        1.81
  YS02001762           JUNCTION     1.70     2.11     8.51     0  02:47        2.03
  YS02001765           JUNCTION     1.66     2.04     8.49     0  02:47        1.97
  YS02001767           JUNCTION     1.62     2.00     8.49     0  02:46        1.93
  YS02001770           JUNCTION     1.62     1.95     8.44     0  02:45        1.91
  YS02001774           JUNCTION     1.68     2.01     8.44     0  02:47        1.97
  YS02001779           JUNCTION     1.43     1.68     8.37     0  02:44        1.68
  YS02001882           JUNCTION     0.60     1.65     8.37     0  02:50        1.63
  YS02001884           JUNCTION     0.70     1.74     8.36     0  02:50        1.73
  YS02001759           JUNCTION     1.74     2.14     8.50     0  02:47        2.06
  YS02001887           JUNCTION     0.77     1.81     8.35     0  03:00        1.81
  YS02001890           JUNCTION     0.80     1.81     8.32     0  02:50        1.81
  YS02001898           JUNCTION     0.57     1.57     8.31     0  02:51        1.57
  YS02001901           JUNCTION     0.69     1.68     8.29     0  02:51        1.68
  YS02001904           JUNCTION     0.67     1.64     8.27     0  02:51        1.64
  YS02001907           JUNCTION     1.00     1.96     8.25     0  02:50        1.96
  YS02001910           JUNCTION     0.79     1.80     8.31     0  02:50        1.77
  YS02001915           JUNCTION     0.58     1.62     8.34     0  02:50        1.59
  YS02001918           JUNCTION     0.32     1.44     8.51     0  02:50        1.28
  YS02001619           JUNCTION     1.22     1.61     8.54     0  02:44        1.47
  YS02001629           JUNCTION     1.57     1.85     8.40     0  02:44        1.85
  YS02001641           JUNCTION     1.67     1.95     8.39     0  02:46        1.93
  YS02001644           JUNCTION     1.67     1.92     8.35     0  02:46        1.92
  YS02001652           JUNCTION     1.52     2.16     8.76     0  02:55        2.01
  YS02001655           JUNCTION     1.28     2.20     9.05     0  02:42        1.98
  YS02001920           JUNCTION     0.42     1.38     8.39     0  02:52        1.36
  YS02001923           JUNCTION     0.25     1.15     8.41     0  02:52        1.13
  YS02001926           JUNCTION     0.30     0.98     8.43     0  02:52        0.98
  YS02001929           JUNCTION     0.17     0.76     8.45     0  02:52        0.71
  YS02001658           JUNCTION     1.01     2.30     9.44     0  02:45        1.96
  YS02001661           JUNCTION     0.79     2.46     9.86     0  02:55        1.81
  YS02001664           JUNCTION     0.34     0.57     8.49     0  03:53        0.57
  YS02001622           JUNCTION     1.24     1.62     8.52     0  02:44        1.50
  YS02001633           JUNCTION     1.66     1.97     8.43     0  02:46        1.94
  YS02001649           JUNCTION     1.71     2.05     8.44     0  02:45        2.05
  YS02001757           JUNCTION     1.83     2.21     8.47     0  02:46        2.17
  YS02001895           JUNCTION     0.56     1.57     8.32     0  02:51        1.57
  YS02001625           JUNCTION     1.52     1.78     8.38     0  02:44        1.78
  YS02163301           JUNCTION     1.60     1.91     8.43     0  02:46        1.87
  YS02163601           JUNCTION     1.71     2.02     8.42     0  02:46        1.98
  YS02164001           JUNCTION     1.65     1.95     8.41     0  02:46        1.91
  YS02001647           JUNCTION     1.50     1.80     8.41     0  03:20        1.79
  YSB1154              JUNCTION     0.27     0.54     9.60     0  03:01        0.54
  YSB6556              JUNCTION     0.17     0.43     9.60     0  03:02        0.43
  YSB1174              JUNCTION     0.22     0.49     9.60     0  03:01        0.49
  YSB1171              JUNCTION     0.42     0.69     9.60     0  03:01        0.69
  YS02006553           JUNCTION     1.00     1.97     8.25     0  03:02        1.96
  YS02006561           JUNCTION     0.36     1.13     7.79     0  02:50        1.11
  YS02006556           JUNCTION     0.96     1.93     8.24     0  02:50        1.93
  YS02006558           JUNCTION     1.00     1.97     8.24     0  03:00        1.97
  YS02001783           JUNCTION     0.60     1.52     7.66     0  02:50        1.50
  YS02001784           JUNCTION     0.62     1.47     7.54     0  02:50        1.44
  YS02001786           JUNCTION     0.55     1.31     7.34     0  02:50        1.28
  YS02001788           JUNCTION     0.48     1.17     7.15     0  02:50        1.15
  YS02001790           JUNCTION     0.61     1.41     7.06     0  05:18        1.31
  YS02001791           JUNCTION     0.59     2.43     7.90     0  02:27        1.27
  YS02001793           JUNCTION     0.84     3.37     8.20     0  02:25        1.80
  WS02004139           JUNCTION     0.62     0.75     5.66     0  03:00        0.75
  WSC                  OUTFALL      0.32     0.44     1.11     0  03:04        0.44
  3                    OUTFALL      0.12     0.23     6.23     0  00:00        0.22
  4                    OUTFALL      0.06     0.17     7.17     0  02:50        0.17
  5                    OUTFALL      0.00     0.00     5.00     0  00:00        0.00
  JK-storage           STORAGE      3.33     5.80     6.60     0  02:30        5.80
  CC-storage           STORAGE      1.04     1.39     8.39     0  03:33        1.39
  XR-storage           STORAGE      6.36     7.72     5.72     0  03:07        7.72
  
  
  *******************
  Node Inflow Summary
  *******************
  
  -------------------------------------------------------------------------------------------------
                                  Maximum  Maximum                  Lateral       Total        Flow
                                  Lateral    Total  Time of Max      Inflow      Inflow     Balance
                                   Inflow   Inflow   Occurrence      Volume      Volume       Error
  Node                 Type           LPS      LPS  days hr:min    10^6 ltr    10^6 ltr     Percent
  -------------------------------------------------------------------------------------------------
  WS02001211           JUNCTION      7.35   382.33     0  00:50       0.207        7.52       0.486
  WS02001212           JUNCTION      0.00   378.95     0  00:51           0        7.49       0.297
  WS02001213           JUNCTION      0.00   378.38     0  00:51           0        7.47       0.325
  WS02003069           JUNCTION      0.32  1154.45     0  03:03     0.00902        16.6       0.208
  WS02003072           JUNCTION      0.00  1153.94     0  03:03           0        16.6       0.248
  WS02003073           JUNCTION      1.82  1155.96     0  03:04      0.0514        16.6       0.284
  WS02003060           JUNCTION     16.53  1154.06     0  03:02       0.466        16.6       0.195
  WS02003066           JUNCTION      0.00   799.00     0  03:05           0        8.79       0.059
  WS02003059           JUNCTION      0.00   376.99     0  00:52           0        7.44       0.528
  WS02003067           JUNCTION      0.00   798.59     0  03:05           0         8.8       0.119
  WS02004401           JUNCTION      0.00   801.62     0  03:03           0        9.06       0.268
  WS02004402           JUNCTION      0.00   801.67     0  03:03           0        9.04       0.250
  WS02004403           JUNCTION      0.00   801.70     0  03:03           0        9.01       0.224
  WS02004404           JUNCTION      0.16   801.88     0  03:03     0.00457           9       0.165
  WS02004406           JUNCTION      0.00   801.94     0  03:03           0        8.96       0.403
  WS02004409           JUNCTION      0.00   801.76     0  03:03           0        8.92       0.223
  WS02004410           JUNCTION      0.00   800.36     0  03:04           0         8.9       0.247
  WS02004411           JUNCTION      0.00   799.39     0  03:04           0        8.87       0.250
  WS02004412           JUNCTION      0.00   798.81     0  03:04           0        8.85       0.265
  WS02004413           JUNCTION      0.00   798.55     0  03:04           0        8.83       0.383
  WS02004405           JUNCTION      0.04   801.93     0  03:03     0.00107        8.98       0.249
  WS02006109           JUNCTION      1.23   785.80     0  03:02      0.0347        9.13       0.247
  WS02006110           JUNCTION      0.00   785.74     0  03:02           0        9.11       0.240
  WS02006111           JUNCTION      0.00   783.25     0  03:02           0        9.07       0.059
  WS02006112           JUNCTION     26.73   801.29     0  03:03      0.0709        9.14       0.339
  WS02006113           JUNCTION      0.00   785.73     0  03:02           0        9.08       0.129
  WS02006115           JUNCTION      0.00   801.20     0  03:03           0        9.11       0.266
  WS02006116           JUNCTION      0.00   801.46     0  03:03           0        9.08       0.252
  WS02006230           JUNCTION     10.28   401.47     0  04:31        0.29        7.04       0.205
  WS02006231           JUNCTION      0.00   391.43     0  05:41           0        6.77       0.243
  WS02006232           JUNCTION      0.00   391.45     0  05:41           0        6.78       0.260
  WS02006234           JUNCTION      0.00   392.58     0  05:41           0        6.79       0.156
  WS02006235           JUNCTION      0.00   392.57     0  05:41           0        6.83       0.178
  WS02006238           JUNCTION      0.00   343.77     0  05:20           0           5       0.183
  WS02006240           JUNCTION      0.00   338.02     0  05:20           0           5       0.319
  WS02006242           JUNCTION      0.00   342.49     0  02:08           0        5.01       0.376
  WS02006243           JUNCTION      0.00   355.17     0  02:07           0           5       0.029
  WS02006245           JUNCTION      0.00   363.43     0  02:07           0        5.02       0.313
  WS02006247           JUNCTION      0.00   370.01     0  02:07           0        5.03       0.204
  WS02006248           JUNCTION      0.00   376.28     0  02:07           0        5.04       0.120
  WS02006249           JUNCTION      0.00   485.75     0  02:50           0        6.31       0.274
  WS02006239           JUNCTION      0.00   341.88     0  05:20           0           5       0.283
  WS02006251           JUNCTION      0.08   486.79     0  02:50     0.00217        6.36       0.221
  WS02006252           JUNCTION      0.00   400.00     0  02:06           0        5.92       0.009
  WS02006253           JUNCTION      3.67   134.78     0  03:01     0.00915       0.439       1.942
  WS02006256           JUNCTION      0.00   600.00     0  00:00           0        7.03       0.034
  WS02004138           JUNCTION      0.00   380.00     0  02:40           0        7.35       0.068
  WS02004407           JUNCTION      0.00   801.96     0  03:03           0        8.93       0.100
  WS02006228           JUNCTION      0.00   784.60     0  03:02           0        9.11       0.182
  WS02006229           JUNCTION      0.00   784.62     0  03:02           0        9.12       0.133
  WS02006280           JUNCTION      0.00   611.95     0  03:02           0         2.1       0.003
  WS02006284           JUNCTION      0.10   611.06     0  03:02      0.0027         2.1       0.059
  WS02006287           JUNCTION      0.00   609.83     0  03:02           0         2.1       0.034
  WSF200               JUNCTION      0.00   799.10     0  03:05           0        8.78       0.062
  HS02004901           JUNCTION     32.58    32.58     0  03:01      0.0854      0.0856       2.108
  HS02004881           JUNCTION     13.69   131.68     0  03:01      0.0372       0.403       0.065
  HS02004876           JUNCTION     24.31   119.37     0  03:01      0.0714       0.367       0.153
  HS02004870           JUNCTION     25.15    96.63     0  03:01      0.0704       0.295       0.038
  HS02004862           JUNCTION     23.13    73.48     0  03:01      0.0763       0.225       0.079
  HS02004856           JUNCTION     18.81    51.88     0  03:01      0.0529        0.15       0.974
  HS02004852           JUNCTION      0.00    35.11     0  03:01           0      0.0975       0.061
  HS02004848           JUNCTION     51.30    51.30     0  03:01        0.17        0.17       0.030
  HS02004842           JUNCTION      0.00    15.11     0  03:01           0      0.0852      18.024
  HS02004837           JUNCTION     48.64    62.30     0  03:01       0.302       0.374       0.219
  HS02004830           JUNCTION      0.15    61.39     0  03:01     0.00423       0.364       0.340
  HS02004824           JUNCTION     61.99   121.77     0  03:01       0.222       0.584       0.093
  HS02004817           JUNCTION      0.60   117.99     0  03:02      0.0169       0.601       2.855
  HS02004807           JUNCTION     46.68   158.06     0  03:01       0.129       0.713       0.602
  HS02004802           JUNCTION      0.00   156.92     0  03:03           0       0.709       0.570
  HS02004799           JUNCTION     37.02   389.10     0  03:01       0.105        1.19       0.208
  HS02004792           JUNCTION    159.34   356.48     0  03:01       0.445        1.08       0.038
  HS02004788           JUNCTION     52.70   202.58     0  03:02       0.193       0.638       0.061
  HS02004785           JUNCTION      0.15   157.28     0  03:01     0.00423       0.447       0.112
  HS02004777           JUNCTION      0.03   160.02     0  03:01    0.000846       0.447       1.175
  HS02004770           JUNCTION    133.95   163.78     0  03:01       0.365       0.449       0.699
  HS02004480           JUNCTION      0.00   456.69     0  03:01           0         1.4       0.083
  HS02004479           JUNCTION      0.00    72.19     0  03:02           0       0.228       0.322
  HS02004478           JUNCTION      0.00   609.30     0  03:02           0         2.1       0.019
  YS02001745           JUNCTION    387.96   454.99     0  02:46        2.65        2.66       0.320
  YS02001748           JUNCTION      0.04   668.79     0  02:46     0.00127        2.65       0.849
  YS02001751           JUNCTION      0.01   401.16     0  03:01     0.00031        2.62       0.896
  YS02001754           JUNCTION      0.26   401.62     0  03:01     0.00733         2.6       0.954
  YS02001762           JUNCTION      0.00   394.45     0  02:55           0        1.92       1.099
  YS02001765           JUNCTION      0.00   394.34     0  02:55           0        1.92       1.269
  YS02001767           JUNCTION      0.54   394.31     0  02:55      0.0151        1.95       1.871
  YS02001770           JUNCTION    496.57   496.57     0  03:01        2.97        3.06       1.040
  YS02001774           JUNCTION      0.00   381.64     0  03:36           0        1.18       2.164
  YS02001779           JUNCTION      0.01   381.77     0  03:36    0.000141        1.15       1.360
  YS02001882           JUNCTION      0.00    28.81     0  02:46           0       0.018      14.869
  YS02001884           JUNCTION      0.00    36.47     0  02:45           0      0.0535      13.494
  YS02001759           JUNCTION    483.56   791.77     0  02:57        2.74        4.55       0.505
  YS02001887           JUNCTION    623.03   623.15     0  03:01        3.16        3.19       0.274
  YS02001890           JUNCTION      0.00   622.98     0  03:01           0        3.14       0.301
  YS02001898           JUNCTION      0.00   516.97     0  03:01           0        3.09       0.113
  YS02001901           JUNCTION      0.00   516.98     0  03:01           0        3.09       0.232
  YS02001904           JUNCTION      0.00   516.97     0  03:01           0        3.08       0.211
  YS02001907           JUNCTION      0.00  1058.60     0  03:01           0        6.88       0.363
  YS02001910           JUNCTION      0.00   541.83     0  03:01           0        3.81       0.315
  YS02001915           JUNCTION    347.37   541.80     0  03:01        2.22        3.85       0.166
  YS02001918           JUNCTION      0.00   275.46     0  02:52           0        1.65       0.117
  YS02001619           JUNCTION    337.96   337.96     0  03:01        2.21        2.21       0.548
  YS02001629           JUNCTION      0.00   231.24     0  02:50           0        1.58       1.845
  YS02001641           JUNCTION      0.00   486.47     0  02:51           0         4.1       0.516
  YS02001644           JUNCTION    368.39  1107.92     0  03:34        2.55        8.72       0.298
  YS02001652           JUNCTION      0.00   484.05     0  03:01           0        2.31       1.011
  YS02001655           JUNCTION      0.15   483.76     0  03:01     0.00434        2.34       1.084
  YS02001920           JUNCTION      2.87   275.46     0  02:52      0.0809        1.64       0.190
  YS02001923           JUNCTION      0.04   265.18     0  02:53     0.00106        1.54       0.051
  YS02001926           JUNCTION      0.05   194.02     0  02:53     0.00147        1.53       0.222
  YS02001929           JUNCTION    163.23   163.23     0  03:01        1.53        1.53       0.039
  YS02001658           JUNCTION      0.00   659.52     0  02:45           0        2.36       0.922
  YS02001661           JUNCTION      0.00   754.97     0  03:00           0        3.05      -0.218
  YS02001664           JUNCTION    446.68   446.68     0  03:01        2.35        3.05       0.133
  YS02001622           JUNCTION      0.00   338.15     0  03:01           0        2.19       1.463
  YS02001633           JUNCTION    373.80   486.87     0  02:51        2.63        4.16       0.779
  YS02001649           JUNCTION      0.00  1030.77     0  02:51           0        5.25       0.710
  YS02001757           JUNCTION      0.00  2011.78     0  02:52           0        10.2       0.914
  YS02001895           JUNCTION      0.00   516.97     0  03:01           0        3.09       0.165
  YS02001625           JUNCTION      0.00   338.12     0  03:01           0        2.16       1.817
  YS02163301           JUNCTION      0.00   232.08     0  02:43           0        1.56       1.562
  YS02163601           JUNCTION      0.11   486.80     0  02:51      0.0031        4.12       0.734
  YS02164001           JUNCTION      0.00   486.70     0  02:51           0         4.1       0.492
  YS02001647           JUNCTION      0.00   741.48     0  02:51           0        4.09       0.693
  YSB1154              JUNCTION     43.21    43.21     0  03:01       0.127       0.128       1.144
  YSB6556              JUNCTION      0.00    41.76     0  03:01           0       0.129       0.980
  YSB1174              JUNCTION     35.94    35.94     0  03:01      0.0924      0.0931       1.403
  YSB1171              JUNCTION      0.00    73.33     0  03:01           0       0.227       2.865
  YS02006553           JUNCTION      0.00   671.88     0  03:32           0        6.12       0.259
  YS02006561           JUNCTION      0.00   969.13     0  03:00           0        8.97       0.009
  YS02006556           JUNCTION      0.00   671.78     0  03:32           0        6.12       0.188
  YS02006558           JUNCTION    532.26   969.31     0  03:01         2.9           9       0.060
  YS02001783           JUNCTION      0.00   969.24     0  03:00           0        8.97       0.029
  YS02001784           JUNCTION      1.06   970.19     0  03:01      0.0299        8.99       0.042
  YS02001786           JUNCTION      0.06   970.24     0  03:01     0.00159        8.99       0.039
  YS02001788           JUNCTION      0.07   970.33     0  03:01       0.002        8.99       0.025
  YS02001790           JUNCTION      0.15   970.54     0  03:01     0.00437        8.99       0.031
  YS02001791           JUNCTION      0.00   970.50     0  03:00           0        8.99       0.009
  YS02001793           JUNCTION      0.00   970.59     0  03:00           0        8.99       0.007
  WS02004139           JUNCTION      0.32   379.86     0  00:50     0.00905        7.36       0.538
  WSC                  OUTFALL       0.00  1155.94     0  03:04           0        16.5       0.000
  3                    OUTFALL       0.00   597.65     0  00:00           0        5.16       0.000
  4                    OUTFALL       0.00   262.06     0  02:50           0        1.26       0.000
  5                    OUTFALL       0.00     0.00     0  00:00           0           0       0.000 ltr
  JK-storage           STORAGE       0.00   970.59     0  03:01           0        9.14      -7.055
  CC-storage           STORAGE       0.00  2011.73     0  02:52           0        9.09      -0.235
  XR-storage           STORAGE     849.17   849.17     0  03:01        10.2        10.8      -0.002
  
  
  **********************
  Node Surcharge Summary
  **********************
  
  Surcharging occurs when water rises above the top of the highest conduit.
  ---------------------------------------------------------------------
                                               Max. Height   Min. Depth
                                   Hours       Above Crown    Below Rim
  Node                 Type      Surcharged         Meters       Meters
  ---------------------------------------------------------------------
  WS02004401           JUNCTION        0.34          0.105        1.555
  WS02004402           JUNCTION        0.39          0.107        1.633
  WS02004403           JUNCTION        0.40          0.097        1.933
  WS02004404           JUNCTION        0.77          0.150        2.630
  WS02004406           JUNCTION        0.65          0.101        2.349
  WS02004405           JUNCTION        0.72          0.131        2.669
  WS02006109           JUNCTION        3.62          0.438        1.382
  WS02006110           JUNCTION        1.14          0.197        1.653
  WS02006112           JUNCTION        1.26          0.380        1.300
  WS02006115           JUNCTION        0.12          0.046        2.204
  WS02006116           JUNCTION        0.16          0.054        2.236
  WS02006230           JUNCTION        0.75          0.300        1.270
  WS02006231           JUNCTION        0.84          0.306        1.224
  WS02006232           JUNCTION        3.90          0.412        1.068
  WS02006234           JUNCTION        1.00          0.277        0.963
  WS02006235           JUNCTION        3.19          0.291        0.999
  WS02006238           JUNCTION        3.53          0.308        1.122
  WS02006240           JUNCTION        0.99          0.177        1.213
  WS02006242           JUNCTION        3.14          0.199        0.621
  WS02006243           JUNCTION        0.61          0.075        0.695
  WS02006245           JUNCTION        0.31          0.033        0.817
  WS02006247           JUNCTION        0.30          0.033        0.727
  WS02006239           JUNCTION        1.76          0.229        1.061
  WS02006252           JUNCTION        3.85          0.193        0.907
  WS02006256           JUNCTION        0.01          1.050        0.000
  WS02006228           JUNCTION        3.47          0.545        1.655
  YS02001748           JUNCTION        4.84          1.190        0.000
  YS02001751           JUNCTION        5.09          1.200        0.000
  YS02001754           JUNCTION        5.24          1.150        0.000
  YS02001762           JUNCTION        5.51          1.109        0.041
  YS02001765           JUNCTION        5.48          1.041        0.059
  YS02001767           JUNCTION        5.46          1.001        0.029
  YS02001770           JUNCTION        5.41          0.920        0.000
  YS02001774           JUNCTION        5.50          1.014        0.036
  YS02001779           JUNCTION        5.23          0.680        0.000
  YS02001882           JUNCTION        1.05          0.651        0.179
  YS02001884           JUNCTION        1.07          0.684        0.186
  YS02001759           JUNCTION        5.54          1.139        0.071
  YS02001887           JUNCTION        1.16          0.761        0.189
  YS02001890           JUNCTION        1.19          0.760        0.000
  YS02001898           JUNCTION        1.00          0.543        0.197
  YS02001901           JUNCTION        1.12          0.683        0.187
  YS02001904           JUNCTION        1.10          0.639        0.211
  YS02001907           JUNCTION        1.64          0.950        0.000
  YS02001910           JUNCTION        1.24          0.803        0.297
  YS02001915           JUNCTION        1.03          0.620        0.380
  YS02001918           JUNCTION        0.79          0.445        0.365
  YS02001619           JUNCTION        5.11          0.610        0.000
  YS02001629           JUNCTION        5.12          0.470        0.000
  YS02001641           JUNCTION        5.50          0.950        0.150
  YS02001644           JUNCTION        5.50          0.920        0.000
  YS02001652           JUNCTION        5.26          1.130        0.000
  YS02001655           JUNCTION        5.12          1.200        0.000
  YS02001920           JUNCTION        0.83          0.383        0.757
  YS02001658           JUNCTION        4.88          1.300        0.000
  YS02001661           JUNCTION        0.24          1.390        0.000
  YS02001622           JUNCTION        5.14          0.620        0.000
  YS02001633           JUNCTION        5.48          0.954        0.106
  YS02001649           JUNCTION        5.52          1.050        0.000
  YS02001757           JUNCTION        5.62          1.210        0.000
  YS02001895           JUNCTION        1.02          0.569        0.181
  YS02001625           JUNCTION        5.28          0.780        0.000
  YS02163301           JUNCTION        5.45          0.911        0.119
  YS02163601           JUNCTION        5.52          1.022        0.058
  YS02164001           JUNCTION        5.49          0.950        0.150
  YS02001647           JUNCTION        5.27          0.803        0.097
  YS02006553           JUNCTION        1.70          0.968        0.222
  YS02006561           JUNCTION        0.92          0.327        0.823
  YS02006556           JUNCTION        1.44          0.893        0.457
  YS02006558           JUNCTION        1.41          0.871        0.529
  YS02001783           JUNCTION        1.64          0.723        0.877
  YS02001784           JUNCTION        1.68          0.669        0.821
  YS02001786           JUNCTION        1.64          0.511        0.919
  YS02001788           JUNCTION        1.63          0.372        1.108
  YS02001790           JUNCTION        2.29          0.615        0.542
  YS02001791           JUNCTION        2.40          1.626        0.294
  YS02001793           JUNCTION        2.64          2.368        0.232
  
  
  *********************
  Node Flooding Summary
  *********************
  
  Flooding refers to all water that overflows a node, whether it ponds or not.
  --------------------------------------------------------------------------
                                                             Total   Maximum
                                 Maximum   Time of Max       Flood    Ponded
                        Hours       Rate    Occurrence      Volume     Depth
  Node                 Flooded       LPS   days hr:min    10^6 ltr    Meters
  --------------------------------------------------------------------------
  WS02006256              0.01    406.11      0  00:00       0.001     0.000
  YS02001748              0.01    306.54      0  02:48       0.001     0.000
  YS02001751              0.01    116.20      0  02:45       0.000     0.000
  YS02001754              0.01      6.20      0  02:46       0.000     0.000
  YS02001770              0.01      7.58      0  02:46       0.000     0.000
  YS02001779              2.76    381.76      0  03:36       1.128     0.000
  YS02001890              0.23    106.38      0  03:01       0.038     0.000
  YS02001907              0.66    619.68      0  03:01       0.744     0.000
  YS02001619              0.01     25.12      0  02:45       0.000     0.000
  YS02001629              0.01     36.41      0  02:44       0.000     0.000
  YS02001644              3.85   1107.85      0  03:34       6.695     0.000
  YS02001652              0.01     23.23      0  03:00       0.000     0.000
  YS02001655              0.01    160.39      0  02:42       0.000     0.000
  YS02001658              0.01    253.05      0  02:45       0.000     0.000
  YS02001661              0.01    177.29      0  03:00       0.001     0.000
  YS02001622              0.01     28.19      0  02:44       0.000     0.000
  YS02001649              0.10     49.19      0  03:00       0.006     0.000
  YS02001757              0.01     19.15      0  02:48       0.000     0.000
  YS02001625              1.10    316.18      0  03:01       0.544     0.000
  JK-storage              2.07    962.91      0  03:20       2.809     0.000
  XR-storage              3.32    662.93      0  03:10       2.580     0.000
  
  
  **********************
  Storage Volume Summary
  **********************
  
  --------------------------------------------------------------------------------------------------
                         Average     Avg  Evap Exfil       Maximum     Max    Time of Max    Maximum
                          Volume    Pcnt  Pcnt  Pcnt        Volume    Pcnt     Occurrence    Outflow
  Storage Unit           1000 m3    Full  Loss  Loss       1000 m3    Full    days hr:min        LPS
  --------------------------------------------------------------------------------------------------
  JK-storage               0.168      57     0     0         0.291     100       0  02:30     600.00
  CC-storage               2.902      18     0     0         3.881      25       0  03:33     400.00
  XR-storage               0.763      82     0     0         0.926     100       0  03:07     380.00
  
  
  ***********************
  Outfall Loading Summary
  ***********************
  
  -----------------------------------------------------------
                         Flow       Avg       Max       Total
                         Freq      Flow      Flow      Volume
  Outfall Node           Pcnt       LPS       LPS    10^6 ltr
  -----------------------------------------------------------
  WSC                   99.99    675.83   1155.94      16.549
  3                     89.47    273.74    597.65       5.158
  4                     64.60     87.66    262.06       1.262
  5                      0.00      0.00      0.00       0.000
  -----------------------------------------------------------
  System                63.52   1037.23   1826.75      22.969
  
  
  ********************
  Link Flow Summary
  ********************
  
  -----------------------------------------------------------------------------
                                 Maximum  Time of Max   Maximum    Max/    Max/
                                  |Flow|   Occurrence   |Veloc|    Full    Full
  Link                 Type          LPS  days hr:min     m/sec    Flow   Depth
  -----------------------------------------------------------------------------
  WS02003066WSF200     CONDUIT    799.10     0  03:05      2.93    0.13    0.29
  WS02006287WS02006284 CONDUIT    610.97     0  03:02      2.31    0.28    0.37
  WS02006284WS02006280 CONDUIT    611.95     0  03:02      2.55    0.26    0.35
  WS02006280WS02006229 CONDUIT    612.07     0  03:02      4.12    0.13    0.24
  WS02006229WS02006228 CONDUIT    784.60     0  03:02      1.56    2.60    1.00
  WS02006256WS02006235 CONDUIT    177.52     0  00:01      2.73    1.88    1.00
  WS02006253WS02006251 CONDUIT    134.53     0  03:01      0.45    0.40    1.00
  WS02006252WS02006251 CONDUIT    400.60     0  05:17      3.19    1.47    1.00
  WS02006251WS02006249 CONDUIT    485.75     0  02:50      1.27    1.40    0.98
  WS02006249WS02006248 CONDUIT    376.28     0  02:07      1.21    2.06    0.95
  WS02006248WS02006247 CONDUIT    370.01     0  02:07      1.19    0.81    0.98
  WS02006247WS02006245 CONDUIT    363.43     0  02:07      1.15    2.88    1.00
  WS02006245WS02006243 CONDUIT    355.17     0  02:07      1.19    1.05    1.00
  WS02006243WS02006242 CONDUIT    342.49     0  02:08      1.02    0.73    1.00
  WS02006242WS02006240 CONDUIT    338.02     0  05:20      0.95    1.34    1.00
  WS02006240WS02006239 CONDUIT    341.88     0  05:20      0.98    1.08    1.00
  WS02006239WS02006238 CONDUIT    343.77     0  05:20      0.91    1.10    1.00
  WS02006238WS02006235 CONDUIT    343.57     0  05:20      1.32    0.77    1.00
  WS02006235WS02006234 CONDUIT    392.58     0  05:41      1.05    4.14    1.00
  WS02006234WS02006232 CONDUIT    391.45     0  05:41      1.17    0.79    1.00
  WS02006232WS02006231 CONDUIT    391.43     0  05:41      1.06    0.82    1.00
  WS02006231WS02006230 CONDUIT    391.19     0  04:31      1.36    5.93    1.00
  WS02006230WS02006229 CONDUIT    401.57     0  04:31      1.04    8.94    1.00
  WS02006228WS02006109 CONDUIT    784.57     0  03:02      1.56    3.43    1.00
  WS02006116WS02004401 CONDUIT    801.62     0  03:03      1.02    1.10    1.00
  WS02006115WS02006116 CONDUIT    801.46     0  03:03      1.02    1.03    1.00
  WS02006113WS02006111 CONDUIT    783.25     0  03:02      2.60    0.94    0.75
  WS02006112WS02006115 CONDUIT    801.20     0  03:03      1.02    0.47    1.00
  WS02006111WS02006112 CONDUIT    783.19     0  03:03      1.72    0.37    0.87
  WS02006110WS02006113 CONDUIT    785.73     0  03:02      1.68    0.71    0.88
  WS02006109WS02006110 CONDUIT    785.74     0  03:02      1.56    1.51    1.00
  WS02004411WS02004412 CONDUIT    798.81     0  03:04      1.14    1.13    0.84
  WS02004401WS02004402 CONDUIT    801.67     0  03:03      1.02    0.96    1.00
  WS02004413WS02003067 CONDUIT    798.59     0  03:05      1.39    0.34    0.69
  WS02004412WS02004413 CONDUIT    798.55     0  03:04      1.07    0.53    0.90
  WS02004410WS02004411 CONDUIT    799.39     0  03:04      1.13    1.09    0.84
  WS02004409WS02004410 CONDUIT    800.36     0  03:04      1.13    1.04    0.85
  WS02004407WS02004409 CONDUIT    801.76     0  03:03      1.61    0.28    0.61
  WS02004406WS02004407 CONDUIT    801.96     0  03:03      1.40    0.36    0.68
  WS02004405WS02004406 CONDUIT    801.94     0  03:03      1.02    1.58    1.00
  WS02004404WS02004405 CONDUIT    801.89     0  03:03      1.02    7.86    1.00
  WS02004403WS02004404 CONDUIT    801.72     0  03:03      1.02    0.58    1.00
  WS02004402WS02004403 CONDUIT    801.70     0  03:03      1.02    1.15    1.00
  WS02004139WS02001211 CONDUIT    374.98     0  00:50      0.80    0.47    0.61
  WS02004138WS02004139 CONDUIT    379.54     0  00:50      3.34    0.08    0.44
  WS02003067WS02003066 CONDUIT    799.00     0  03:05      1.51    0.26    0.48
  WS02001213WS02003059 CONDUIT    376.99     0  00:52      0.80    0.62    0.82
  WS02001212WS02001213 CONDUIT    378.38     0  00:51      1.31    0.58    0.51
  WS02001211WS02001212 CONDUIT    378.95     0  00:51      0.77    0.29    0.67
  WS02003072WS02003073 CONDUIT   1154.14     0  03:04      1.86    2.49    0.54
  WS02003069WS02003072 CONDUIT   1153.94     0  03:03      1.73    0.56    0.57
  WS02003060WS02003069 CONDUIT   1154.13     0  03:03      1.96    0.45    0.52
  WS02003059WS02003060 CONDUIT    375.11     0  00:53      0.93    0.24    0.72
  HS02004901HS02004770 CONDUIT     32.24     0  03:01      0.09    0.12    0.50
  HS02004876HS02004881 CONDUIT    119.33     0  03:01      1.17    1.27    0.15
  HS02004870HS02004876 CONDUIT     96.13     0  03:01      0.79    0.06    0.17
  HS02004842HS02004848 CONDUIT     15.11     0  03:01      0.07    0.01    0.33
  HS02004837HS02004842 CONDUIT     16.10     0  03:03      0.41    0.01    0.34
  HS02004830HS02004837 CONDUIT     61.24     0  03:01      0.66    0.06    0.13
  HS02004824HS02004830 CONDUIT     60.79     0  03:01      0.63    0.08    0.15
  HS02004817HS02004824 CONDUIT    117.39     0  03:02      0.30    0.05    0.56
  HS02004770HS02004777 CONDUIT    159.99     0  03:01      0.45    0.29    0.51
  HS02004799HS02004480 CONDUIT    387.38     0  03:01      1.00    0.49    0.56
  HS02004792HS02004799 CONDUIT    353.06     0  03:01      1.12    0.22    0.45
  HS02004788HS02004792 CONDUIT    202.14     0  03:02      1.22    0.13    0.24
  HS02004785HS02004788 CONDUIT    156.68     0  03:02      0.85    1.18    0.26
  HS02004777HS02004785 CONDUIT    157.13     0  03:01      0.53    0.19    0.42
  HS02004480HS02004478 CONDUIT    456.75     0  03:01      1.47    1.92    0.44
  HS02004479HS02004480 CONDUIT     74.07     0  03:02      0.22    0.07    0.53
  HS02004862HS02004870 CONDUIT     73.11     0  03:01      0.77    0.08    0.14
  HS02004848HS02004852 CONDUIT     35.11     0  03:01      0.52    0.04    0.10
  HS02004856HS02004862 CONDUIT     51.23     0  03:01      0.58    0.05    0.13
  HS02004852HS02004856 CONDUIT     35.02     0  03:02      0.32    0.04    0.16
  HS02004802HS02004478 CONDUIT    160.69     0  03:04      0.54    0.14    0.45
  HS02004478WS02006287 CONDUIT    609.83     0  03:02      2.03    0.17    0.33
  HS02004817HS02004807 CONDUIT    120.81     0  03:04      0.24    0.07    0.73
  HS02004807HS02004802 CONDUIT    156.92     0  03:03      0.45    0.30    0.51
  YS02001759YS02001757 CONDUIT    791.78     0  02:57      1.01    0.56    1.00
  YS02001762YS02001759 CONDUIT    394.32     0  02:55      0.50    0.45    1.00
  YS02001765YS02001762 CONDUIT    394.45     0  02:55      0.50    0.37    1.00
  YS02001770YS02001767 CONDUIT    393.77     0  02:55      0.50    1.56    1.00
  YS02001774YS02001770 CONDUIT    381.64     0  03:36      0.49    0.24    1.00
  YS02001779YS02001774 CONDUIT    381.77     0  03:36      0.49    0.19    1.00
  YS02001649YS02001757 CONDUIT   1030.69     0  02:51      1.31    0.63    1.00
  YS02001767YS02001765 CONDUIT    394.34     0  02:55      0.50    0.50    1.00
  YS02006561YS02001783 CONDUIT    969.24     0  03:00      2.02    0.50    1.00
  YS02001783YS02001784 CONDUIT    969.13     0  03:01      1.93    1.34    1.00
  YS02001784YS02001785 CONDUIT    970.19     0  03:01      1.93    2.26    1.00
  YS02001788YS02001790 CONDUIT    970.39     0  03:01      2.06    0.72    1.00
  YS02001790YS02001791 CONDUIT    970.50     0  03:00      2.42    1.06    1.00
  YS02001791YS02001793 CONDUIT    970.59     0  03:00      4.76    0.42    1.00
  YS02001910YS02001907 CONDUIT    541.81     0  03:01      0.69    0.31    1.00
  YS02001786YS02001788 CONDUIT    970.26     0  03:01      2.05    1.87    1.00
  YS02001915YS02001910 CONDUIT    541.83     0  03:01      0.69    0.27    1.00
  YS02001918YS02001915 CONDUIT    275.67     0  02:52      0.44    0.15    1.00
  YS02001923YS02001920 CONDUIT    272.59     0  02:52      0.72    0.12    1.00
  YS02001926YS02001923 CONDUIT    265.14     0  02:53      0.82    0.38    0.95
  YS02001929YS02001926 CONDUIT    193.96     0  02:53      0.87    0.09    0.86
  YS02001920YS02001918 CONDUIT    275.46     0  02:52      0.70    0.27    1.00
  YS02001629YS02163301 CONDUIT    232.08     0  02:43      0.30    0.29    1.00
  YS02001619YS02001622 CONDUIT    338.15     0  03:01      0.60    0.50    1.00
  YS02001622YS02001625 CONDUIT    338.12     0  03:01      0.43    0.18    1.00
  YS02001625YS02001629 CONDUIT    231.24     0  02:50      0.29    0.11    1.00
  YS02163301YS02001633 CONDUIT    232.47     0  02:50      0.30    0.22    1.00
  YS02163601YS02164001 CONDUIT    486.70     0  02:51      0.62    0.43    1.00
  YS02164001YS02001641 CONDUIT    486.47     0  02:51      0.62    0.66    1.00
  YS02001641YS02001644 CONDUIT    486.46     0  02:51      0.62    1.57    1.00
  YS02001647YS02001649 CONDUIT    741.72     0  02:51      0.94    0.39    1.00
  YS02006553YS02006556 CONDUIT    671.78     0  03:32      0.86    0.57    1.00
  YS02006556YS02006558 CONDUIT    671.84     0  03:32      0.86    0.53    1.00
  YSB6556YSB1171       CONDUIT     41.33     0  03:02      0.13    0.04    0.80
  YS02001907YS02006553 CONDUIT    671.88     0  03:32      0.75    0.79    1.00
  YS02006558YS02006561 CONDUIT    969.13     0  03:00      3.43    2.14    1.00
  YS02001633YS02163601 CONDUIT    486.69     0  02:51      0.62    0.51    1.00
  YS02001644YS02001647 CONDUIT    741.48     0  02:51      0.94    0.44    1.00
  YS02001745YS02001748 CONDUIT    668.74     0  02:46      1.48    0.26    0.94
  YS02001748YS02001751 CONDUIT    401.15     0  03:01      1.03    0.20    1.00
  YS02001751YS02001754 CONDUIT    401.36     0  03:01      0.84    0.19    1.00
  YS02001754YS02001757 CONDUIT    401.39     0  03:01      0.51    0.16    1.00
  YS02001882YS02001884 CONDUIT     28.81     0  02:46      0.08    0.03    1.00
  YS02001884YS02001887 CONDUIT     36.47     0  02:45      0.05    0.05    1.00
  YS02001890YS02001895 CONDUIT    516.97     0  03:01      0.66    0.24    1.00
  YS02001895YS02001898 CONDUIT    516.97     0  03:01      0.66    0.90    1.00
  YS02001898YS02001901 CONDUIT    516.98     0  03:01      0.66    0.33    1.00
  YS02001901YS02001904 CONDUIT    516.97     0  03:01      0.66    0.80    1.00
  YS02001904YS02001907 CONDUIT    516.90     0  03:01      0.66    0.18    1.00
  YS02001887YS02001890 CONDUIT    622.98     0  03:01      0.79    1.07    1.00
  YS02001652YS02001649 CONDUIT    484.52     0  03:01      0.62    0.24    1.00
  YS02001655YS02001652 CONDUIT    484.05     0  03:01      0.89    0.24    1.00
  YS02001658YS02001655 CONDUIT    483.60     0  03:01      1.18    0.21    1.00
  YS02001661YS02001658 CONDUIT    659.52     0  02:45      1.56    0.26    1.00
  YS02001664YS02001661 CONDUIT    754.97     0  03:00      1.63    0.24    0.72
  YSB1154YSB6556       CONDUIT     41.76     0  03:01      0.19    0.08    0.69
  YSB1174YSB1171       CONDUIT     34.49     0  03:01      0.10    0.05    0.81
  YSB1171HS02004479    CONDUIT     72.19     0  03:02      0.54    0.05    0.65
  HS02004881HS02006253 CONDUIT    131.62     0  03:01      1.56    0.03    0.33
  YS02001793JiankangQianchi CONDUIT    970.59     0  03:01     11.58    0.08    1.00
  YS02001757CaochengTiaoxuchi CONDUIT   2011.73     0  02:52      2.89    0.88    1.00
  WSF200WS02003060     CONDUIT    798.99     0  03:05      1.96    0.18    0.40
  1                    CONDUIT   1155.94     0  03:04      3.46    0.40    0.44
  2                    CONDUIT    262.06     0  02:50      6.23    0.63    0.57
  3                    CONDUIT    597.65     0  00:00     10.17    0.95    0.86
  4                    CONDUIT      0.00     0  00:00      0.00    0.00    0.00
  CC-Pump-1            PUMP       200.00     0  02:06              1.00
  CC-Pump-2            PUMP       200.00     0  02:06              1.00
  JK-Pump-1            PUMP       300.00     0  00:00              1.00
  JK-Pump-2            PUMP       300.00     0  00:00              1.00
  XR-Pump-1            PUMP        95.00     0  00:00              1.00
  XR-Pump-2            PUMP        95.00     0  00:00              1.00
  XR-Pump-3            PUMP        95.00     0  00:20              1.00
  XR-Pump-4            PUMP        95.00     0  00:00              1.00
  
  
  ***************************
  Flow Classification Summary
  ***************************
  
  -------------------------------------------------------------------------------------
                      Adjusted    ---------- Fraction of Time in Flow Class ---------- 
                       /Actual         Up    Down  Sub   Sup   Up    Down  Norm  Inlet 
  Conduit               Length    Dry  Dry   Dry   Crit  Crit  Crit  Crit  Ltd   Ctrl  
  -------------------------------------------------------------------------------------
  WS02003066WSF200        1.00   0.04  0.02  0.00  0.00  0.94  0.00  0.00  0.56  0.00
  WS02006287WS02006284    1.00   0.03  0.01  0.00  0.58  0.38  0.00  0.00  0.67  0.00
  WS02006284WS02006280    1.00   0.04  0.00  0.00  0.00  0.00  0.00  0.96  0.00  0.00
  WS02006280WS02006229    1.00   0.04  0.00  0.00  0.00  0.00  0.00  0.96  0.00  0.00
  WS02006229WS02006228    1.00   0.00  0.00  0.00  0.99  0.00  0.00  0.01  0.00  0.00
  WS02006256WS02006235    1.00   0.00  0.00  0.00  1.00  0.00  0.00  0.00  0.00  0.00
  WS02006253WS02006251    1.00   0.02  0.01  0.00  0.97  0.00  0.00  0.00  0.00  0.00
  WS02006252WS02006251    1.00   0.07  0.00  0.00  0.00  0.00  0.93  0.00  0.00  0.00
  WS02006251WS02006249    1.00   0.00  0.00  0.00  1.00  0.00  0.00  0.00  0.27  0.00
  WS02006249WS02006248    1.00   0.00  0.02  0.00  0.88  0.00  0.10  0.00  0.00  0.00
  WS02006248WS02006247    1.00   0.02  0.00  0.00  0.97  0.00  0.00  0.01  0.16  0.00
  WS02006247WS02006245    1.00   0.02  0.00  0.00  0.97  0.00  0.00  0.02  0.00  0.00
  WS02006245WS02006243    1.00   0.01  0.00  0.00  0.95  0.00  0.00  0.04  0.01  0.00
  WS02006243WS02006242    1.00   0.01  0.00  0.00  0.99  0.00  0.00  0.00  0.21  0.00
  WS02006242WS02006240    1.00   0.00  0.00  0.00  1.00  0.00  0.00  0.00  0.00  0.00
  WS02006240WS02006239    1.00   0.00  0.00  0.00  0.96  0.00  0.00  0.03  0.02  0.00
  WS02006239WS02006238    1.00   0.00  0.00  0.00  1.00  0.00  0.00  0.00  0.00  0.00
  WS02006238WS02006235    1.00   0.00  0.00  0.00  1.00  0.00  0.00  0.00  0.00  0.00
  WS02006235WS02006234    1.00   0.00  0.00  0.00  0.96  0.00  0.04  0.00  0.00  0.00
  WS02006234WS02006232    1.00   0.00  0.00  0.00  1.00  0.00  0.00  0.00  0.00  0.00
  WS02006232WS02006231    1.00   0.00  0.00  0.00  0.99  0.00  0.01  0.00  0.00  0.00
  WS02006231WS02006230    1.00   0.00  0.00  0.00  0.78  0.00  0.21  0.00  0.00  0.00
  WS02006230WS02006229    1.00   0.00  0.00  0.00  0.98  0.00  0.00  0.02  0.01  0.00
  WS02006228WS02006109    1.00   0.00  0.00  0.00  1.00  0.00  0.00  0.00  0.00  0.00
  WS02006116WS02004401    1.00   0.02  0.00  0.00  0.98  0.00  0.00  0.00  0.00  0.00
  WS02006115WS02006116    1.00   0.02  0.00  0.00  0.97  0.00  0.00  0.01  0.01  0.00
  WS02006113WS02006111    1.00   0.02  0.00  0.00  0.03  0.95  0.00  0.00  0.09  0.00
  WS02006112WS02006115    1.00   0.02  0.00  0.00  0.98  0.00  0.00  0.00  0.00  0.00
  WS02006111WS02006112    1.00   0.02  0.00  0.00  0.98  0.00  0.00  0.00  0.89  0.00
  WS02006110WS02006113    1.00   0.01  0.00  0.00  0.98  0.00  0.00  0.00  0.00  0.00
  WS02006109WS02006110    1.00   0.00  0.01  0.00  0.98  0.00  0.00  0.00  0.00  0.00
  WS02004411WS02004412    1.00   0.04  0.00  0.00  0.96  0.00  0.00  0.00  0.00  0.00
  WS02004401WS02004402    1.00   0.02  0.00  0.00  0.98  0.00  0.00  0.00  0.00  0.00
  WS02004413WS02003067    1.00   0.05  0.01  0.00  0.00  0.00  0.94  0.00  0.00  0.00
  WS02004412WS02004413    1.00   0.04  0.00  0.00  0.96  0.00  0.00  0.00  0.01  0.00
  WS02004410WS02004411    1.00   0.04  0.00  0.00  0.96  0.00  0.00  0.00  0.00  0.00
  WS02004409WS02004410    1.00   0.04  0.00  0.00  0.96  0.00  0.00  0.00  0.00  0.00
  WS02004407WS02004409    1.00   0.04  0.00  0.00  0.95  0.00  0.00  0.00  0.80  0.00
  WS02004406WS02004407    1.00   0.00  0.04  0.00  0.96  0.00  0.00  0.00  0.00  0.00
  WS02004405WS02004406    1.00   0.00  0.00  0.00  1.00  0.00  0.00  0.00  0.02  0.00
  WS02004404WS02004405    1.00   0.00  0.00  0.00  1.00  0.00  0.00  0.00  0.00  0.00
  WS02004403WS02004404    1.00   0.00  0.02  0.00  0.98  0.00  0.00  0.00  0.02  0.00
  WS02004402WS02004403    1.00   0.02  0.00  0.00  0.98  0.00  0.00  0.00  0.00  0.00
  WS02004139WS02001211    1.00   0.00  0.00  0.00  0.99  0.00  0.01  0.00  0.00  0.00
  WS02004138WS02004139    1.00   0.00  0.00  0.00  0.99  0.01  0.00  0.00  1.00  0.00
  WS02003067WS02003066    1.00   0.06  0.00  0.00  0.94  0.00  0.00  0.00  0.00  0.00
  WS02001213WS02003059    1.00   0.00  0.00  0.00  0.99  0.00  0.00  0.00  0.00  0.00
  WS02001212WS02001213    1.00   0.00  0.00  0.00  0.89  0.00  0.11  0.00  0.00  0.00
  WS02001211WS02001212    1.00   0.00  0.00  0.00  1.00  0.00  0.00  0.00  0.00  0.00
  WS02003072WS02003073    1.00   0.00  0.00  0.00  0.00  0.00  0.00  1.00  0.00  0.00
  WS02003069WS02003072    1.00   0.00  0.00  0.00  0.99  0.01  0.00  0.00  0.23  0.00
  WS02003060WS02003069    1.00   0.00  0.00  0.00  0.99  0.01  0.00  0.00  0.10  0.00
  WS02003059WS02003060    1.00   0.00  0.00  0.00  0.99  0.01  0.00  0.00  0.01  0.00
  HS02004901HS02004770    1.00   0.03  0.00  0.00  0.97  0.00  0.00  0.00  0.01  0.00
  HS02004876HS02004881    1.00   0.02  0.00  0.00  0.86  0.12  0.00  0.00  0.00  0.00
  HS02004870HS02004876    1.00   0.01  0.00  0.00  0.99  0.00  0.00  0.00  0.95  0.00
  HS02004842HS02004848    1.00   0.00  0.03  0.00  0.97  0.00  0.00  0.00  0.58  0.00
  HS02004837HS02004842    1.00   0.00  0.00  0.00  0.99  0.01  0.00  0.00  0.11  0.00
  HS02004830HS02004837    1.00   0.00  0.00  0.00  1.00  0.00  0.00  0.00  0.99  0.00
  HS02004824HS02004830    1.00   0.00  0.00  0.00  1.00  0.00  0.00  0.00  0.01  0.00
  HS02004817HS02004824    1.00   0.00  0.00  0.00  1.00  0.00  0.00  0.00  0.98  0.00
  HS02004770HS02004777    1.00   0.00  0.03  0.00  0.97  0.00  0.00  0.00  0.04  0.00
  HS02004799HS02004480    1.00   0.00  0.02  0.00  0.96  0.00  0.02  0.00  0.00  0.00
  HS02004792HS02004799    1.00   0.00  0.00  0.00  0.99  0.01  0.00  0.00  0.98  0.00
  HS02004788HS02004792    1.00   0.00  0.00  0.00  0.99  0.01  0.00  0.00  0.98  0.00
  HS02004785HS02004788    1.00   0.00  0.00  0.00  1.00  0.00  0.00  0.00  0.00  0.00
  HS02004777HS02004785    1.00   0.00  0.00  0.00  1.00  0.00  0.00  0.00  0.15  0.00
  HS02004480HS02004478    1.00   0.03  0.00  0.00  0.66  0.00  0.00  0.31  0.00  0.00
  HS02004479HS02004480    1.00   0.02  0.00  0.00  0.98  0.00  0.00  0.00  0.13  0.00
  HS02004862HS02004870    1.00   0.00  0.00  0.00  1.00  0.00  0.00  0.00  0.06  0.00
  HS02004848HS02004852    1.00   0.03  0.00  0.00  0.97  0.00  0.00  0.00  0.64  0.00
  HS02004856HS02004862    1.00   0.00  0.05  0.00  0.95  0.00  0.00  0.00  0.79  0.00
  HS02004852HS02004856    1.00   0.03  0.00  0.00  0.96  0.00  0.00  0.00  0.81  0.00
  HS02004802HS02004478    1.00   0.03  0.00  0.00  0.96  0.00  0.00  0.00  0.03  0.00
  HS02004478WS02006287    1.00   0.04  0.00  0.00  0.72  0.24  0.00  0.00  0.66  0.00
  HS02004817HS02004807    1.00   0.00  0.03  0.00  0.97  0.00  0.00  0.00  0.01  0.00
  HS02004807HS02004802    1.00   0.03  0.00  0.00  0.96  0.00  0.00  0.00  0.00  0.00
  YS02001759YS02001757    1.00   0.00  0.00  0.00  1.00  0.00  0.00  0.00  0.17  0.00
  YS02001762YS02001759    1.00   0.00  0.00  0.00  1.00  0.00  0.00  0.00  0.04  0.00
  YS02001765YS02001762    1.00   0.00  0.00  0.00  1.00  0.00  0.00  0.00  0.17  0.00
  YS02001770YS02001767    1.00   0.00  0.00  0.00  1.00  0.00  0.00  0.00  0.00  0.00
  YS02001774YS02001770    1.00   0.00  0.03  0.00  0.96  0.00  0.00  0.00  0.04  0.00
  YS02001779YS02001774    1.00   0.00  0.00  0.00  1.00  0.00  0.00  0.00  0.22  0.00
  YS02001649YS02001757    1.00   0.00  0.00  0.00  1.00  0.00  0.00  0.00  0.17  0.00
  YS02001767YS02001765    1.00   0.00  0.00  0.00  1.00  0.00  0.00  0.00  0.01  0.00
  YS02006561YS02001783    1.00   0.05  0.00  0.00  0.38  0.57  0.00  0.00  0.49  0.00
  YS02001783YS02001784    1.00   0.00  0.05  0.00  0.95  0.00  0.00  0.00  0.01  0.00
  YS02001784YS02001785    1.00   0.00  0.00  0.00  1.00  0.00  0.00  0.00  0.21  0.00
  YS02001788YS02001790    1.00   0.00  0.00  0.00  0.48  0.52  0.00  0.00  0.47  0.00
  YS02001790YS02001791    1.00   0.00  0.00  0.00  0.45  0.55  0.00  0.00  0.42  0.00
  YS02001791YS02001793    1.00   0.00  0.00  0.00  0.49  0.51  0.00  0.00  0.03  0.00
  YS02001910YS02001907    1.00   0.00  0.00  0.00  0.98  0.00  0.00  0.02  0.13  0.00
  YS02001786YS02001788    1.00   0.00  0.00  0.00  0.45  0.55  0.00  0.00  0.00  0.00
  YS02001915YS02001910    1.00   0.00  0.00  0.00  0.99  0.01  0.00  0.00  0.19  0.00
  YS02001918YS02001915    1.00   0.00  0.01  0.00  0.99  0.00  0.00  0.00  0.57  0.00
  YS02001923YS02001920    1.00   0.00  0.00  0.00  1.00  0.00  0.00  0.00  0.82  0.00
  YS02001926YS02001923    1.00   0.00  0.03  0.00  0.18  0.00  0.79  0.00  0.00  0.00
  YS02001929YS02001926    1.00   0.00  0.03  0.00  0.97  0.00  0.00  0.00  0.75  0.00
  YS02001920YS02001918    1.00   0.00  0.01  0.00  0.99  0.00  0.00  0.00  0.00  0.00
  YS02001629YS02163301    1.00   0.04  0.00  0.00  0.96  0.00  0.00  0.00  0.00  0.00
  YS02001619YS02001622    1.00   0.03  0.00  0.00  0.97  0.00  0.00  0.00  0.00  0.00
  YS02001622YS02001625    1.00   0.03  0.00  0.00  0.97  0.00  0.00  0.00  0.08  0.00
  YS02001625YS02001629    1.00   0.03  0.02  0.00  0.93  0.00  0.02  0.00  0.00  0.00
  YS02163301YS02001633    1.00   0.00  0.04  0.00  0.96  0.00  0.00  0.00  0.00  0.00
  YS02163601YS02164001    1.00   0.00  0.03  0.00  0.97  0.00  0.00  0.00  0.00  0.00
  YS02164001YS02001641    1.00   0.01  0.02  0.00  0.97  0.00  0.00  0.00  0.06  0.00
  YS02001641YS02001644    1.00   0.00  0.01  0.00  0.99  0.00  0.00  0.00  0.00  0.00
  YS02001647YS02001649    1.00   0.00  0.05  0.00  0.95  0.00  0.00  0.00  0.01  0.00
  YS02006553YS02006556    1.00   0.02  0.00  0.00  0.98  0.00  0.00  0.00  0.03  0.00
  YS02006556YS02006558    1.00   0.00  0.00  0.00  1.00  0.00  0.00  0.00  0.00  0.00
  YSB6556YSB1171          1.00   0.02  0.01  0.00  0.97  0.00  0.00  0.00  0.00  0.00
  YS02001907YS02006553    1.00   0.00  0.01  0.00  0.98  0.00  0.00  0.00  0.00  0.00
  YS02006558YS02006561    1.00   0.05  0.00  0.00  0.23  0.72  0.00  0.00  0.44  0.00
  YS02001633YS02163601    1.00   0.00  0.01  0.00  0.99  0.00  0.00  0.00  0.16  0.00
  YS02001644YS02001647    1.00   0.00  0.05  0.00  0.95  0.00  0.00  0.00  0.00  0.00
  YS02001745YS02001748    1.00   0.00  0.00  0.00  0.89  0.01  0.00  0.10  0.05  0.00
  YS02001748YS02001751    1.00   0.00  0.00  0.00  0.97  0.03  0.00  0.00  0.15  0.00
  YS02001751YS02001754    1.00   0.00  0.00  0.00  0.95  0.00  0.00  0.05  0.02  0.00
  YS02001754YS02001757    1.00   0.00  0.00  0.00  0.99  0.01  0.00  0.00  0.21  0.00
  YS02001882YS02001884    1.00   0.04  0.00  0.00  0.96  0.00  0.00  0.00  0.00  0.00
  YS02001884YS02001887    1.00   0.02  0.01  0.00  0.97  0.00  0.00  0.00  0.00  0.00
  YS02001890YS02001895    1.00   0.00  0.04  0.00  0.96  0.00  0.00  0.00  0.00  0.00
  YS02001895YS02001898    1.00   0.04  0.00  0.00  0.95  0.00  0.01  0.00  0.00  0.00
  YS02001898YS02001901    1.00   0.04  0.00  0.00  0.96  0.00  0.00  0.00  0.03  0.00
  YS02001901YS02001904    1.00   0.04  0.00  0.00  0.96  0.00  0.00  0.00  0.00  0.00
  YS02001904YS02001907    1.00   0.00  0.04  0.00  0.96  0.00  0.00  0.00  0.00  0.00
  YS02001887YS02001890    1.00   0.00  0.00  0.00  0.98  0.00  0.01  0.00  0.00  0.00
  YS02001652YS02001649    1.00   0.00  0.00  0.00  1.00  0.00  0.00  0.00  0.19  0.00
  YS02001655YS02001652    1.00   0.00  0.00  0.00  0.95  0.00  0.00  0.05  0.03  0.00
  YS02001658YS02001655    1.00   0.00  0.04  0.00  0.93  0.03  0.00  0.00  0.13  0.00
  YS02001661YS02001658    1.00   0.04  0.00  0.00  0.89  0.08  0.00  0.00  0.08  0.00
  YS02001664YS02001661    1.00   0.03  0.00  0.00  0.86  0.10  0.00  0.00  0.23  0.00
  YSB1154YSB6556          1.00   0.03  0.00  0.00  0.97  0.00  0.00  0.00  0.02  0.00
  YSB1174YSB1171          1.00   0.02  0.01  0.00  0.97  0.00  0.00  0.00  0.00  0.00
  YSB1171HS02004479       1.00   0.02  0.00  0.00  0.98  0.00  0.00  0.00  0.11  0.00
  HS02004881HS02006253    1.00   0.02  0.00  0.00  0.78  0.01  0.00  0.18  0.63  0.00
  YS02001793JiankangQianchi    1.00   0.00  0.00  0.00  0.71  0.29  0.00  0.00  0.17  0.00
  YS02001757CaochengTiaoxuchi    1.00   0.00  0.07  0.00  0.87  0.06  0.00  0.00  0.00  0.00
  WSF200WS02003060        1.00   0.00  0.04  0.00  0.78  0.18  0.00  0.00  0.21  0.00
  1                       1.00   0.00  0.00  0.00  0.00  1.00  0.00  0.00  0.28  0.00
  2                       1.00   0.35  0.00  0.00  0.00  0.65  0.00  0.00  0.11  0.00
  3                       1.00   0.11  0.00  0.00  0.00  0.89  0.00  0.00  0.02  0.00
  4                       1.00   1.00  0.00  0.00  0.00  0.00  0.00  0.00  0.00  0.00
  
  
  *************************
  Conduit Surcharge Summary
  *************************
  
  ----------------------------------------------------------------------------
                                                           Hours        Hours 
                         --------- Hours Full --------   Above Full   Capacity
  Conduit                Both Ends  Upstream  Dnstream   Normal Flow   Limited
  ----------------------------------------------------------------------------
  WS02006229WS02006228        3.47      3.75      3.47      4.93         3.47
  WS02006256WS02006235        5.97      5.97      7.83      1.99         0.01
  WS02006253WS02006251        0.04      0.04      0.14      0.01         0.01
  WS02006252WS02006251        2.60      2.60      3.85      3.53         0.01
  WS02006251WS02006249        0.01      0.06      0.01      2.90         0.01
  WS02006249WS02006248        0.01      0.01      0.01      4.56         0.01
  WS02006248WS02006247        0.01      0.01      0.30      0.01         0.01
  WS02006247WS02006245        0.31      0.36      0.31      4.97         0.31
  WS02006245WS02006243        0.34      0.34      0.61      0.05         0.01
  WS02006243WS02006242        0.69      0.69      3.14      0.01         0.01
  WS02006242WS02006240        0.99      0.99      3.60      3.50         0.01
  WS02006240WS02006239        1.53      1.53      1.76      0.07         0.01
  WS02006239WS02006238        3.42      3.42      3.53      0.13         0.12
  WS02006238WS02006235        3.35      3.35      3.81      0.01         0.01
  WS02006235WS02006234        1.00      1.00      3.19      6.00         0.01
  WS02006234WS02006232        1.72      1.72      3.90      0.01         0.01
  WS02006232WS02006231        0.84      0.84      3.90      0.01         0.01
  WS02006231WS02006230        0.75      0.75      0.87      5.96         0.01
  WS02006230WS02006229        4.58      4.77      4.58      6.04         4.58
  WS02006228WS02006109        3.62      4.21      3.62      5.34         3.62
  WS02006116WS02004401        0.33      0.33      0.34      0.25         0.26
  WS02006115WS02006116        0.15      0.15      0.16      0.08         0.08
  WS02006112WS02006115        0.12      0.12      1.26      0.01         0.01
  WS02006111WS02006112        0.01      0.01      4.95      0.01         0.01
  WS02006110WS02006113        0.01      0.01      3.93      0.01         0.01
  WS02006109WS02006110        1.14      1.14      4.21      1.15         0.01
  WS02004411WS02004412        0.01      0.01      0.01      0.31         0.01
  WS02004401WS02004402        0.34      0.34      0.39      0.01         0.01
  WS02004410WS02004411        0.01      0.01      0.01      0.22         0.01
  WS02004409WS02004410        0.01      0.01      0.01      0.10         0.01
  WS02004406WS02004407        0.01      0.01      0.65      0.01         0.01
  WS02004405WS02004406        0.65      0.72      0.65      1.21         0.65
  WS02004404WS02004405        0.72      0.77      0.72      5.90         0.72
  WS02004403WS02004404        0.40      0.40      0.77      0.01         0.01
  WS02004402WS02004403        0.39      0.39      0.40      0.32         0.32
  WS02003072WS02003073        0.01      0.01      0.01      5.29         0.01
  HS02004876HS02004881        0.01      0.01      0.01      0.17         0.01
  HS02004785HS02004788        0.01      0.01      0.01      0.10         0.01
  HS02004480HS02004478        0.01      0.01      0.01      0.52         0.01
  YS02001759YS02001757        5.54      5.54      5.62      0.01         0.01
  YS02001762YS02001759        5.51      5.51      5.54      0.01         0.01
  YS02001765YS02001762        5.48      5.48      5.51      0.01         0.01
  YS02001770YS02001767        5.46      5.46      5.46      0.34         0.93
  YS02001774YS02001770        5.41      5.41      5.50      0.01         0.01
  YS02001779YS02001774        5.23      5.23      5.50      0.01         0.01
  YS02001649YS02001757        5.52      5.52      5.62      0.01         0.01
  YS02001767YS02001765        5.46      5.46      5.48      0.01         0.01
  YS02006561YS02001783        0.92      0.92      1.64      0.01         0.01
  YS02001783YS02001784        1.64      1.64      1.68      1.27         1.24
  YS02001784YS02001785        1.64      1.68      1.64      2.23         1.64
  YS02001788YS02001790        1.63      1.63      2.29      0.01         0.01
  YS02001790YS02001791        2.29      2.29      2.40      0.76         0.76
  YS02001791YS02001793        2.40      2.40      2.78      0.01         0.01
  YS02001910YS02001907        1.24      1.24      1.64      0.01         0.01
  YS02001786YS02001788        1.63      1.64      1.63      1.79         1.62
  YS02001915YS02001910        1.03      1.03      1.24      0.01         0.01
  YS02001918YS02001915        0.79      0.79      1.03      0.01         0.01
  YS02001923YS02001920        0.63      0.63      0.83      0.01         0.01
  YS02001920YS02001918        0.79      0.79      0.83      0.01         0.01
  YS02001629YS02163301        5.42      5.42      5.45      0.01         0.01
  YS02001619YS02001622        5.11      5.11      5.14      0.01         0.01
  YS02001622YS02001625        5.14      5.14      5.28      0.01         0.01
  YS02001625YS02001629        5.12      5.12      5.28      0.01         0.01
  YS02163301YS02001633        5.45      5.45      5.49      0.01         0.01
  YS02163601YS02164001        5.49      5.49      5.52      0.01         0.01
  YS02164001YS02001641        5.49      5.49      5.50      0.01         0.02
  YS02001641YS02001644        5.50      5.50      5.50      1.47         1.57
  YS02001647YS02001649        5.27      5.27      5.52      0.01         0.01
  YS02006553YS02006556        1.44      1.44      1.70      0.01         0.01
  YS02006556YS02006558        1.55      1.55      1.78      0.01         0.01
  YS02001907YS02006553        2.24      2.24      2.45      0.01         0.01
  YS02006558YS02006561        1.13      1.41      1.13      2.09         1.13
  YS02001633YS02163601        5.48      5.48      5.52      0.01         0.01
  YS02001644YS02001647        5.27      5.27      5.50      0.01         0.01
  YS02001745YS02001748        0.01      0.01      4.84      0.01         0.01
  YS02001748YS02001751        5.03      5.03      5.09      0.01         0.01
  YS02001751YS02001754        5.09      5.09      5.24      0.01         0.01
  YS02001754YS02001757        5.26      5.26      5.62      0.01         0.01
  YS02001882YS02001884        1.05      1.05      1.07      0.01         0.01
  YS02001884YS02001887        1.13      1.13      1.16      0.01         0.01
  YS02001890YS02001895        1.02      1.02      1.25      0.01         0.01
  YS02001895YS02001898        1.00      1.00      1.02      0.01         0.01
  YS02001898YS02001901        1.03      1.03      1.12      0.01         0.01
  YS02001901YS02001904        1.10      1.10      1.12      0.01         0.01
  YS02001904YS02001907        1.10      1.10      1.73      0.01         0.01
  YS02001887YS02001890        1.19      1.19      1.22      0.07         0.01
  YS02001652YS02001649        5.27      5.27      5.52      0.01         0.01
  YS02001655YS02001652        5.12      5.12      5.26      0.01         0.01
  YS02001658YS02001655        4.88      4.88      5.12      0.01         0.01
  YS02001661YS02001658        0.23      0.23      4.88      0.01         0.02
  YS02001664YS02001661        0.01      0.01      1.18      0.01         0.01
  YS02001793JiankangQianchi        2.64      2.64      4.17      0.01         0.01
  YS02001757CaochengTiaoxuchi        4.79      4.79      5.62      0.01         0.01
  3                           0.01      0.01      0.01      0.01         0.01
  
  
  ***************
  Pumping Summary
  ***************
  
  ---------------------------------------------------------------------------------------------------------
                                                  Min       Avg       Max     Total     Power    % Time Off
                        Percent   Number of      Flow      Flow      Flow    Volume     Usage    Pump Curve
  Pump                 Utilized   Start-Ups       LPS       LPS       LPS  10^6 ltr     Kw-hr    Low   High
  ---------------------------------------------------------------------------------------------------------
  CC-Pump-1               68.02           5      0.00    145.38    200.00     2.842      4.88    0.0   12.3
  CC-Pump-2               65.90           6      0.00    164.12    200.00     3.082      5.73    0.0   12.7
  JK-Pump-1               93.61           5      0.00    186.14    300.00     3.722     35.42    0.0    0.0
  JK-Pump-2               82.97           6      0.00    193.20    300.00     3.302     31.84    0.0    0.0
  XR-Pump-1               93.61           6      0.00     68.06     95.00     1.767     17.90    0.0    0.0
  XR-Pump-2               95.73           6      0.00     67.35     95.00     1.881     20.42    0.0    0.0
  XR-Pump-3               87.22           8      0.00     69.26     95.00     1.767     20.17    0.0    0.0
  XR-Pump-4               93.61           5      0.00     75.32     95.00     1.938     20.65    0.0    0.0
  

  Analysis begun on:  Wed Dec 22 20:16:46 2021
  Analysis ended on:  Wed Dec 22 20:16:51 2021
  Total elapsed time: 00:00:05