
  EPA STORM WATER MANAGEMENT MODEL - VERSION 5.1 (Build 5.3.0.dev0)
  --------------------------------------------------------------

  WARNING 04: minimum elevation drop used for Conduit WS02004404WS02004405
  WARNING 03: negative offset ignored for Link YS02001904YS02001907
  
  *********************************************************
  NOTE: The summary statistics displayed in this report are
  based on results found at every computational time step,  
  not just on results from each reporting time step.
  *********************************************************
  
  ****************
  Analysis Options
  ****************
  Flow Units ............... LPS
  Process Models:
    Rainfall/Runoff ........ YES
    RDII ................... NO
    Snowmelt ............... NO
    Groundwater ............ NO
    Flow Routing ........... YES
    Ponding Allowed ........ NO
    Water Quality .......... NO
  Infiltration Method ...... HORTON
  Flow Routing Method ...... DYNWAVE
  Surcharge Method ......... EXTRAN
  Starting Date ............ 08/28/2015 08:00:00
  Ending Date .............. 08/28/2015 15:50:00
  Antecedent Dry Days ...... 8.0
  Report Time Step ......... 00:01:00
  Wet Time Step ............ 00:01:00
  Dry Time Step ............ 00:01:00
  Routing Time Step ........ 5.00 sec
  Variable Time Step ....... YES
  Maximum Trials ........... 8
  Number of Threads ........ 4
  Head Tolerance ........... 0.001500 m
  
  
  **************************        Volume         Depth
  Runoff Quantity Continuity     hectare-m            mm
  **************************     ---------       -------
  Total Precipitation ......         6.144        13.452
  Evaporation Loss .........         0.000         0.000
  Infiltration Loss ........         1.572         3.442
  Surface Runoff ...........         3.480         7.619
  Final Storage ............         1.093         2.393
  Continuity Error (%) .....        -0.016
  
  
  **************************        Volume        Volume
  Flow Routing Continuity        hectare-m      10^6 ltr
  **************************     ---------     ---------
  Dry Weather Inflow .......         0.616         6.165
  Wet Weather Inflow .......         3.479        34.788
  Groundwater Inflow .......         0.000         0.000
  RDII Inflow ..............         0.000         0.000
  External Inflow ..........         0.102         1.024
  External Outflow .........         2.115        21.145
  Flooding Loss ............         1.602        16.016
  Evaporation Loss .........         0.000         0.000
  Exfiltration Loss ........         0.000         0.000
  Initial Stored Volume ....         0.076         0.761
  Final Stored Volume ......         0.629         6.290
  Continuity Error (%) .....        -1.673
  
  
  *************************
  Highest Continuity Errors
  *************************
  Node HS02004842 (15.27%)
  Node YS02001884 (12.45%)
  Node JK-storage (-6.86%)
  Node YSB1171 (2.79%)
  Node HS02004817 (2.78%)
  
  
  ***************************
  Time-Step Critical Elements
  ***************************
  Link 3 (53.38%)
  Link WS02006252WS02006251 (37.14%)
  Link WS02006238WS02006235 (2.58%)
  Link WS02006280WS02006229 (2.15%)
  
  
  ********************************
  Highest Flow Instability Indexes
  ********************************
  Link YS02163301YS02001633 (43)
  Link YS02163601YS02164001 (42)
  Link YS02001629YS02163301 (42)
  Link YS02001619YS02001622 (42)
  Link YS02164001YS02001641 (39)
  
  
  *************************
  Routing Time Step Summary
  *************************
  Minimum Time Step           :     0.13 sec
  Average Time Step           :     0.78 sec
  Maximum Time Step           :     5.00 sec
  Percent in Steady State     :    -0.00
  Average Iterations per Step :     4.69
  Percent Not Converging      :    21.46
  
  
  ***************************
  Subcatchment Runoff Summary
  ***************************
  
  ------------------------------------------------------------------------------------------------------------------------------
                            Total      Total      Total      Total     Imperv       Perv      Total       Total     Peak  Runoff
                           Precip      Runon       Evap      Infil     Runoff     Runoff     Runoff      Runoff   Runoff   Coeff
  Subcatchment                 mm         mm         mm         mm         mm         mm         mm    10^6 ltr      LPS
  ------------------------------------------------------------------------------------------------------------------------------
  sub0                      13.45       0.00       0.00       0.89      11.25       0.05      11.30        0.01     3.67   0.840
  sub1                      13.45       0.00       0.00       1.45      10.71       0.03      10.74        0.07    24.31   0.799
  sub2                      13.45       0.00       0.00       4.95       7.56       0.02       7.58        0.07    22.93   0.564
  sub3                      13.45       0.00       0.00       4.96       7.52       0.02       7.54        0.17    51.30   0.560
  sub4                      13.45       0.00       0.00       1.46      10.54       0.02      10.56        0.22    61.94   0.785
  sub5                      13.45       0.00       0.00       0.91      11.19       0.03      11.22        0.13    43.21   0.834
  sub7                      13.45       0.00       0.00       1.17      10.98       0.04      11.03        0.04    13.69   0.820
  sub8                      13.45       0.00       0.00       1.17      10.97       0.04      11.01        0.07    25.15   0.819
  sub9                      13.45       0.00       0.00       1.17      10.97       0.04      11.01        0.05    18.81   0.818
  sub10                     13.45       0.00       0.00       1.04      11.08       0.03      11.11        0.12    42.29   0.826
  sub11                     13.45       0.00       0.00       1.04      11.10       0.04      11.14        0.13    46.68   0.828
  sub12                     13.45       0.00       0.00       1.69      10.51       0.06      10.58        0.09    35.94   0.786
  sub14                     13.45       0.00       0.00       1.17      10.97       0.04      11.01        0.10    37.02   0.818
  sub15                     13.45       0.00       0.00       4.00       8.43       0.04       8.47        0.15    51.03   0.630
  sub16                     13.45       0.00       0.00       4.38       8.09       0.06       8.15        0.09    32.58   0.606
  sub17                     13.45       0.00       0.00       4.25       8.21       0.06       8.27        0.07    26.73   0.615
  sub22                     13.45       0.00       0.00       5.74       6.88       0.04       6.92        0.44   159.06   0.514
  sub23                     13.45       0.00       0.00       4.93       7.60       0.05       7.65        0.36   133.95   0.569
  sub60                     13.45       0.00       0.00       1.61       8.73       0.00       8.74        2.65   387.96   0.649
  sub61                     13.45       0.00       0.00       2.28       8.88       0.00       8.88        2.74   483.52   0.660
  sub62                     13.45       0.00       0.00       1.07       9.65       0.00       9.66        2.97   496.42   0.718
  sub63                     13.45       0.00       0.00       3.90       7.77       0.00       7.77        2.35   446.68   0.578
  sub64                     13.45       0.00       0.00       2.01       8.38       0.00       8.38        2.55   368.35   0.623
  sub65                     13.45       0.00       0.00       1.75       8.52       0.00       8.52        2.62   373.60   0.634
  sub66                     13.45       0.00       0.00       3.90       7.19       0.00       7.19        2.21   337.96   0.535
  sub67                     13.45       0.00       0.00       1.07      10.19       0.01      10.19        3.15   622.58   0.758
  sub68                     13.45       0.00       0.00       1.88       9.34       0.01       9.34        2.87   531.38   0.694
  sub69                     13.45       0.00       0.00       2.01       9.68       0.01       9.69        2.26   503.32   0.720
  sub70                     13.45       9.89       0.00       7.67      12.93       0.26      13.20        3.02   423.72   0.565
  sub71                     13.45       0.00       0.00       1.07       9.40       0.00       9.40        2.22   347.35   0.699
  sub72                     13.45       0.00       0.00       0.94       7.49       0.00       7.50        1.53   163.23   0.557
  sub73                     13.45      12.84       0.00       8.67      14.26       0.27      14.53        3.41   375.92   0.552
  sub74                     13.45       0.00       0.00      10.09       2.88       0.00       2.89        1.15   273.25   0.215
  
  
  ******************
  Node Depth Summary
  ******************
  
  ---------------------------------------------------------------------------------
                                 Average  Maximum  Maximum  Time of Max    Reported
                                   Depth    Depth      HGL   Occurrence   Max Depth
  Node                 Type       Meters   Meters   Meters  days hr:min      Meters
  ---------------------------------------------------------------------------------
  WS02001211           JUNCTION     0.66     0.78     5.62     0  03:31        0.78
  WS02001212           JUNCTION     0.39     0.50     5.56     0  03:31        0.50
  WS02001213           JUNCTION     0.63     0.75     5.51     0  03:01        0.75
  WS02003069           JUNCTION     0.46     0.62     5.21     0  03:03        0.62
  WS02003072           JUNCTION     0.53     0.68     5.05     0  03:04        0.68
  WS02003073           JUNCTION     0.32     0.42     4.48     0  03:04        0.42
  WS02003060           JUNCTION     0.41     0.55     5.48     0  03:02        0.55
  WS02003066           JUNCTION     0.25     0.35     5.90     0  03:05        0.35
  WS02003059           JUNCTION     0.69     0.82     5.50     0  03:02        0.82
  WS02003067           JUNCTION     0.60     0.78     6.10     0  03:05        0.78
  WS02004401           JUNCTION     0.72     1.08     7.08     0  03:03        1.08
  WS02004402           JUNCTION     0.75     1.09     7.05     0  03:03        1.08
  WS02004403           JUNCTION     0.77     1.08     7.01     0  03:03        1.08
  WS02004404           JUNCTION     0.84     1.13     6.98     0  03:03        1.13
  WS02004406           JUNCTION     0.84     1.09     6.92     0  03:03        1.09
  WS02004409           JUNCTION     0.54     0.83     6.60     0  03:04        0.83
  WS02004410           JUNCTION     0.56     0.83     6.55     0  03:04        0.83
  WS02004411           JUNCTION     0.57     0.83     6.51     0  03:04        0.83
  WS02004412           JUNCTION     0.58     0.82     6.46     0  03:05        0.82
  WS02004413           JUNCTION     0.73     0.96     6.43     0  03:05        0.96
  WS02004405           JUNCTION     0.84     1.12     6.97     0  03:03        1.11
  WS02006109           JUNCTION     0.81     1.22     7.84     0  03:02        1.20
  WS02006110           JUNCTION     0.79     1.08     7.66     0  03:02        1.08
  WS02006111           JUNCTION     0.24     0.55     7.25     0  03:03        0.55
  WS02006112           JUNCTION     0.90     1.34     7.23     0  03:03        1.33
  WS02006113           JUNCTION     0.37     0.58     7.47     0  03:03        0.58
  WS02006115           JUNCTION     0.62     1.03     7.16     0  03:03        1.02
  WS02006116           JUNCTION     0.70     1.09     7.13     0  03:03        1.08
  WS02006230           JUNCTION     0.80     1.32     8.06     0  03:02        1.31
  WS02006231           JUNCTION     0.54     0.99     8.12     0  02:48        0.95
  WS02006232           JUNCTION     0.67     1.08     8.12     0  02:49        1.03
  WS02006234           JUNCTION     0.60     1.03     8.19     0  02:49        0.92
  WS02006235           JUNCTION     0.63     1.06     8.22     0  02:49        0.92
  WS02006238           JUNCTION     0.65     1.09     8.24     0  02:49        0.95
  WS02006240           JUNCTION     0.55     1.19     8.48     0  02:48        0.84
  WS02006242           JUNCTION     0.61     1.05     8.32     0  02:49        1.00
  WS02006243           JUNCTION     0.49     0.89     8.31     0  02:49        0.89
  WS02006245           JUNCTION     0.46     0.99     8.48     0  02:48        0.74
  WS02006247           JUNCTION     0.48     1.17     8.67     0  02:48        0.73
  WS02006248           JUNCTION     0.42     0.69     8.27     0  02:50        0.66
  WS02006249           JUNCTION     0.45     0.67     8.27     0  02:50        0.66
  WS02006239           JUNCTION     0.61     1.14     8.35     0  02:49        0.90
  WS02006251           JUNCTION     0.43     0.74     8.41     0  02:50        0.73
  WS02006252           JUNCTION     0.37     0.59     8.83     0  04:30        0.59
  WS02006253           JUNCTION     0.46     0.77     8.41     0  02:50        0.76
  WS02006256           JUNCTION     1.08     2.35     9.28     0  00:00        1.21
  WS02004138           JUNCTION     0.15     0.19     7.44     0  03:30        0.19
  WS02004407           JUNCTION     0.24     0.36     6.67     0  03:04        0.36
  WS02006228           JUNCTION     0.82     1.33     7.98     0  03:02        1.32
  WS02006229           JUNCTION     0.80     1.36     8.05     0  03:02        1.35
  WS02006280           JUNCTION     0.07     0.24     8.52     0  03:02        0.24
  WS02006284           JUNCTION     0.38     0.63     9.02     0  03:02        0.62
  WS02006287           JUNCTION     0.11     0.37     9.32     0  03:02        0.37
  WSF200               JUNCTION     0.24     0.38     5.62     0  03:04        0.38
  HS02004901           JUNCTION     0.13     0.35    10.17     0  03:01        0.35
  HS02004881           JUNCTION     0.01     0.05     9.08     0  03:01        0.05
  HS02004876           JUNCTION     0.05     0.15     9.18     0  03:01        0.15
  HS02004870           JUNCTION     0.02     0.09     9.37     0  03:01        0.09
  HS02004862           JUNCTION     0.02     0.10     9.49     0  03:01        0.10
  HS02004856           JUNCTION     0.08     0.15     9.57     0  03:01        0.15
  HS02004852           JUNCTION     0.01     0.07     9.58     0  03:02        0.07
  HS02004848           JUNCTION     0.01     0.06     9.67     0  03:01        0.06
  HS02004842           JUNCTION     0.34     0.40     9.67     0  03:01        0.40
  HS02004837           JUNCTION     0.03     0.09     9.67     0  03:01        0.09
  HS02004830           JUNCTION     0.04     0.10     9.57     0  03:01        0.10
  HS02004824           JUNCTION     0.03     0.11     9.51     0  03:02        0.11
  HS02004817           JUNCTION     0.45     0.67     9.52     0  03:02        0.67
  HS02004807           JUNCTION     0.14     0.34     9.51     0  03:02        0.34
  HS02004802           JUNCTION     0.17     0.38     9.50     0  03:02        0.38
  HS02004799           JUNCTION     0.13     0.43     9.65     0  03:01        0.43
  HS02004792           JUNCTION     0.04     0.20     9.72     0  03:01        0.19
  HS02004788           JUNCTION     0.03     0.14    10.04     0  03:02        0.14
  HS02004785           JUNCTION     0.05     0.23    10.13     0  03:02        0.23
  HS02004777           JUNCTION     0.16     0.37    10.17     0  03:01        0.37
  HS02004770           JUNCTION     0.13     0.34    10.17     0  03:01        0.34
  HS02004480           JUNCTION     0.09     0.35     9.59     0  03:01        0.35
  HS02004479           JUNCTION     0.13     0.39     9.60     0  03:01        0.39
  HS02004478           JUNCTION     0.07     0.26     9.48     0  03:01        0.26
  YS02001745           JUNCTION     0.70     0.89     8.41     0  03:23        0.89
  YS02001748           JUNCTION     1.09     1.53     8.61     0  02:46        1.32
  YS02001751           JUNCTION     1.28     1.55     8.43     0  03:23        1.53
  YS02001754           JUNCTION     1.53     1.82     8.43     0  03:19        1.81
  YS02001762           JUNCTION     1.73     2.04     8.44     0  03:03        2.03
  YS02001765           JUNCTION     1.68     1.98     8.43     0  03:00        1.98
  YS02001767           JUNCTION     1.65     1.94     8.43     0  03:16        1.93
  YS02001770           JUNCTION     1.64     1.92     8.41     0  03:20        1.91
  YS02001774           JUNCTION     1.71     1.98     8.40     0  03:28        1.97
  YS02001779           JUNCTION     1.46     1.68     8.37     0  02:46        1.68
  YS02001882           JUNCTION     0.60     1.65     8.37     0  02:50        1.63
  YS02001884           JUNCTION     0.70     1.75     8.36     0  02:50        1.73
  YS02001759           JUNCTION     1.77     2.08     8.44     0  03:07        2.06
  YS02001887           JUNCTION     0.78     1.81     8.35     0  02:50        1.80
  YS02001890           JUNCTION     0.80     1.81     8.32     0  02:50        1.81
  YS02001898           JUNCTION     0.57     1.57     8.31     0  02:51        1.56
  YS02001901           JUNCTION     0.69     1.68     8.29     0  02:51        1.67
  YS02001904           JUNCTION     0.67     1.64     8.27     0  02:51        1.63
  YS02001907           JUNCTION     1.00     1.96     8.25     0  02:50        1.96
  YS02001910           JUNCTION     0.79     1.79     8.30     0  02:52        1.77
  YS02001915           JUNCTION     0.59     1.62     8.34     0  02:52        1.60
  YS02001918           JUNCTION     0.32     1.38     8.44     0  02:50        1.28
  YS02001619           JUNCTION     1.24     1.55     8.48     0  02:42        1.48
  YS02001629           JUNCTION     1.60     1.85     8.40     0  02:42        1.84
  YS02001641           JUNCTION     1.70     1.94     8.38     0  02:46        1.93
  YS02001644           JUNCTION     1.70     1.92     8.35     0  02:46        1.92
  YS02001652           JUNCTION     1.54     2.16     8.76     0  03:02        2.03
  YS02001655           JUNCTION     1.31     2.20     9.05     0  02:56        1.96
  YS02001920           JUNCTION     0.42     1.42     8.42     0  02:52        1.36
  YS02001923           JUNCTION     0.26     1.18     8.44     0  02:52        1.13
  YS02001926           JUNCTION     0.30     0.99     8.43     0  02:52        0.91
  YS02001929           JUNCTION     0.18     0.74     8.44     0  02:52        0.71
  YS02001658           JUNCTION     1.04     2.30     9.44     0  02:56        1.77
  YS02001661           JUNCTION     0.81     2.45     9.86     0  02:56        1.62
  YS02001664           JUNCTION     0.36     0.57     8.49     0  04:04        0.56
  YS02001622           JUNCTION     1.26     1.55     8.46     0  02:42        1.50
  YS02001633           JUNCTION     1.69     1.96     8.42     0  02:44        1.94
  YS02001649           JUNCTION     1.74     2.05     8.44     0  02:52        2.05
  YS02001757           JUNCTION     1.86     2.18     8.44     0  03:20        2.16
  YS02001895           JUNCTION     0.57     1.57     8.32     0  02:51        1.56
  YS02001625           JUNCTION     1.55     1.78     8.38     0  02:42        1.78
  YS02163301           JUNCTION     1.63     1.90     8.42     0  02:44        1.88
  YS02163601           JUNCTION     1.74     2.01     8.41     0  02:46        1.98
  YS02164001           JUNCTION     1.68     1.93     8.39     0  02:46        1.91
  YS02001647           JUNCTION     1.53     1.81     8.42     0  02:56        1.79
  YSB1154              JUNCTION     0.27     0.54     9.60     0  03:01        0.54
  YSB6556              JUNCTION     0.16     0.43     9.60     0  03:02        0.43
  YSB1174              JUNCTION     0.22     0.49     9.60     0  03:01        0.49
  YSB1171              JUNCTION     0.42     0.69     9.60     0  03:01        0.69
  YS02006553           JUNCTION     1.00     1.97     8.25     0  02:59        1.96
  YS02006561           JUNCTION     0.36     1.12     7.78     0  02:50        1.09
  YS02006556           JUNCTION     0.97     1.93     8.24     0  03:00        1.93
  YS02006558           JUNCTION     1.01     1.97     8.24     0  02:59        1.97
  YS02001783           JUNCTION     0.59     1.76     7.91     0  02:41        1.47
  YS02001784           JUNCTION     0.60     1.70     7.77     0  02:41        1.41
  YS02001786           JUNCTION     0.54     1.51     7.54     0  02:41        1.26
  YS02001788           JUNCTION     0.47     1.38     7.36     0  02:41        1.12
  YS02001790           JUNCTION     0.58     1.96     7.60     0  02:40        1.29
  YS02001791           JUNCTION     0.55     1.66     7.13     0  02:40        1.27
  YS02001793           JUNCTION     0.79     3.60     8.43     0  04:57        1.80
  WS02004139           JUNCTION     0.60     0.73     5.64     0  03:30        0.73
  WSC                  OUTFALL      0.32     0.42     1.09     0  03:04        0.42
  3                    OUTFALL      0.12     0.23     6.23     0  00:00        0.21
  4                    OUTFALL      0.03     0.17     7.17     0  02:50        0.16
  5                    OUTFALL      0.00     0.00     5.00     0  00:00        0.00
  JK-storage           STORAGE      2.90     5.80     6.60     0  02:41        5.80
  CC-storage           STORAGE      1.09     1.39     8.39     0  03:43        1.39
  XR-storage           STORAGE      7.35     7.72     5.72     0  02:39        7.72
  
  
  *******************
  Node Inflow Summary
  *******************
  
  -------------------------------------------------------------------------------------------------
                                  Maximum  Maximum                  Lateral       Total        Flow
                                  Lateral    Total  Time of Max      Inflow      Inflow     Balance
                                   Inflow   Inflow   Occurrence      Volume      Volume       Error
  Node                 Type           LPS      LPS  days hr:min    10^6 ltr    10^6 ltr     Percent
  -------------------------------------------------------------------------------------------------
  WS02001211           JUNCTION      7.35   382.37     0  03:30       0.207        6.59       0.452
  WS02001212           JUNCTION      0.00   378.98     0  03:31           0        6.56       0.270
  WS02001213           JUNCTION      0.00   377.97     0  03:31           0        6.54       0.317
  WS02003069           JUNCTION      0.32  1047.39     0  03:03     0.00902        15.5       0.181
  WS02003072           JUNCTION      0.00  1047.10     0  03:03           0        15.5       0.227
  WS02003073           JUNCTION      1.82  1048.87     0  03:04      0.0514        15.5       0.254
  WS02003060           JUNCTION     16.53  1047.09     0  03:02       0.466        15.5       0.173
  WS02003066           JUNCTION      0.00   772.33     0  03:05           0        8.55       0.054
  WS02003059           JUNCTION      0.00   377.81     0  03:32           0        6.53       0.525
  WS02003067           JUNCTION      0.00   771.95     0  03:05           0        8.56       0.112
  WS02004401           JUNCTION      0.00   774.27     0  03:03           0         8.8       0.249
  WS02004402           JUNCTION      0.00   774.30     0  03:03           0        8.78       0.235
  WS02004403           JUNCTION      0.00   774.35     0  03:03           0        8.76       0.213
  WS02004404           JUNCTION      0.16   774.57     0  03:03     0.00457        8.74       0.160
  WS02004406           JUNCTION      0.00   774.66     0  03:03           0        8.71       0.389
  WS02004409           JUNCTION      0.00   774.50     0  03:04           0        8.67       0.197
  WS02004410           JUNCTION      0.00   773.40     0  03:04           0        8.65       0.222
  WS02004411           JUNCTION      0.00   772.56     0  03:04           0        8.63       0.227
  WS02004412           JUNCTION      0.00   772.06     0  03:04           0        8.61       0.244
  WS02004413           JUNCTION      0.00   771.90     0  03:05           0        8.59       0.361
  WS02004405           JUNCTION      0.04   774.63     0  03:03     0.00107        8.73       0.241
  WS02006109           JUNCTION      1.23   759.05     0  03:02      0.0347        8.86       0.257
  WS02006110           JUNCTION      0.00   759.04     0  03:02           0        8.83       0.227
  WS02006111           JUNCTION      0.00   756.59     0  03:03           0         8.8       0.050
  WS02006112           JUNCTION     26.73   773.96     0  03:03      0.0709        8.87       0.321
  WS02006113           JUNCTION      0.00   758.99     0  03:02           0        8.81       0.114
  WS02006115           JUNCTION      0.00   773.94     0  03:03           0        8.84       0.239
  WS02006116           JUNCTION      0.00   774.17     0  03:03           0        8.82       0.230
  WS02006230           JUNCTION     10.28   401.04     0  05:22        0.29        6.76       0.181
  WS02006231           JUNCTION      0.00   392.77     0  05:22           0        6.49       0.206
  WS02006232           JUNCTION      0.00   392.96     0  05:21           0         6.5       0.255
  WS02006234           JUNCTION      0.00   394.26     0  05:21           0        6.51       0.127
  WS02006235           JUNCTION      0.00   394.43     0  05:21           0        6.55       0.165
  WS02006238           JUNCTION      0.00   338.80     0  06:21           0        4.63       0.178
  WS02006240           JUNCTION      0.00   336.63     0  06:21           0        4.64       0.257
  WS02006242           JUNCTION      0.00   336.09     0  06:21           0        4.64       0.314
  WS02006243           JUNCTION      0.00   337.50     0  02:10           0        4.63      -0.149
  WS02006245           JUNCTION      0.00   345.05     0  02:09           0        4.64       0.247
  WS02006247           JUNCTION      0.00   352.43     0  02:09           0        4.65       0.149
  WS02006248           JUNCTION      0.00   358.35     0  02:09           0        4.65       0.075
  WS02006249           JUNCTION      0.00   494.87     0  02:50           0        5.16       0.211
  WS02006239           JUNCTION      0.00   339.09     0  06:21           0        4.63       0.261
  WS02006251           JUNCTION      0.08   500.74     0  02:50     0.00217         5.2       0.174
  WS02006252           JUNCTION      0.00   400.00     0  05:50           0        4.76       0.009
  WS02006253           JUNCTION      3.67   134.78     0  03:01     0.00915        0.44       0.836
  WS02006256           JUNCTION      0.00   600.00     0  00:00           0        7.16       0.030
  WS02004138           JUNCTION      0.00   379.99     0  03:30           0        6.41       0.067
  WS02004407           JUNCTION      0.00   774.70     0  03:03           0        8.68       0.088
  WS02006228           JUNCTION      0.00   757.77     0  03:02           0        8.84       0.180
  WS02006229           JUNCTION      0.00   757.73     0  03:02           0        8.85       0.128
  WS02006280           JUNCTION      0.00   611.97     0  03:02           0         2.1       0.003
  WS02006284           JUNCTION      0.10   611.07     0  03:02      0.0027         2.1       0.059
  WS02006287           JUNCTION      0.00   609.84     0  03:02           0         2.1       0.034
  WSF200               JUNCTION      0.00   772.54     0  03:05           0        8.55       0.055
  HS02004901           JUNCTION     32.58    32.58     0  03:01      0.0853      0.0856       2.108
  HS02004881           JUNCTION     13.69   131.68     0  03:01      0.0372       0.403       0.091
  HS02004876           JUNCTION     24.31   119.37     0  03:01      0.0714       0.367       0.153
  HS02004870           JUNCTION     25.15    96.63     0  03:01      0.0703       0.295       0.038
  HS02004862           JUNCTION     23.13    73.48     0  03:01      0.0763       0.225       0.079
  HS02004856           JUNCTION     18.81    51.88     0  03:01      0.0529        0.15       0.974
  HS02004852           JUNCTION      0.00    35.11     0  03:01           0      0.0975       0.061
  HS02004848           JUNCTION     51.30    51.30     0  03:01        0.17        0.17       0.030
  HS02004842           JUNCTION      0.00    15.11     0  03:01           0      0.0851      18.025
  HS02004837           JUNCTION     48.64    62.30     0  03:01       0.302       0.374       0.219
  HS02004830           JUNCTION      0.15    61.39     0  03:01     0.00423       0.364       0.340
  HS02004824           JUNCTION     61.99   121.77     0  03:01       0.222       0.584       0.093
  HS02004817           JUNCTION      0.60   117.99     0  03:02      0.0169       0.601       2.855
  HS02004807           JUNCTION     46.68   158.05     0  03:01       0.129       0.713       0.602
  HS02004802           JUNCTION      0.00   156.92     0  03:03           0       0.709       0.570
  HS02004799           JUNCTION     37.02   389.11     0  03:01       0.105        1.19       0.208
  HS02004792           JUNCTION    159.34   356.48     0  03:01       0.445        1.08       0.038
  HS02004788           JUNCTION     52.70   202.58     0  03:02       0.193       0.638       0.061
  HS02004785           JUNCTION      0.15   157.28     0  03:01     0.00423       0.447       0.112
  HS02004777           JUNCTION      0.03   160.02     0  03:01    0.000846       0.447       1.175
  HS02004770           JUNCTION    133.95   163.78     0  03:01       0.365       0.449       0.699
  HS02004480           JUNCTION      0.00   456.70     0  03:01           0         1.4       0.083
  HS02004479           JUNCTION      0.00    72.19     0  03:02           0       0.228       0.322
  HS02004478           JUNCTION      0.00   609.31     0  03:02           0         2.1       0.018
  YS02001745           JUNCTION    387.96   387.96     0  03:01        2.65        2.65       0.383
  YS02001748           JUNCTION      0.04   399.86     0  03:01     0.00127        2.64       0.896
  YS02001751           JUNCTION      0.01   399.87     0  03:01     0.00031        2.62       0.908
  YS02001754           JUNCTION      0.26   400.15     0  03:01     0.00733         2.6       0.960
  YS02001762           JUNCTION      0.00   373.95     0  02:53           0        1.76       1.209
  YS02001765           JUNCTION      0.00   374.02     0  02:53           0        1.76       1.385
  YS02001767           JUNCTION      0.54   373.93     0  02:53      0.0151        1.79       2.041
  YS02001770           JUNCTION    496.57   496.57     0  03:01        2.97        3.12       1.026
  YS02001774           JUNCTION      0.00   416.44     0  03:24           0        1.46       1.745
  YS02001779           JUNCTION      0.01   416.72     0  03:24    0.000141        1.43       1.090
  YS02001882           JUNCTION      0.00    46.80     0  02:47           0      0.0161      17.180
  YS02001884           JUNCTION      0.00    60.02     0  02:43           0      0.0509      14.218
  YS02001759           JUNCTION    483.56   746.46     0  02:54        2.74        4.33       0.533
  YS02001887           JUNCTION    623.03   623.06     0  03:01        3.16        3.19       0.275
  YS02001890           JUNCTION      0.00   623.19     0  03:01           0        3.14       0.304
  YS02001898           JUNCTION      0.00   517.18     0  03:07           0        3.09       0.111
  YS02001901           JUNCTION      0.00   517.17     0  03:07           0        3.08       0.231
  YS02001904           JUNCTION      0.00   517.18     0  03:07           0        3.08       0.211
  YS02001907           JUNCTION      0.00  1063.90     0  03:01           0        6.88       0.355
  YS02001910           JUNCTION      0.00   547.75     0  03:01           0        3.81       0.314
  YS02001915           JUNCTION    347.37   547.53     0  03:01        2.22        3.86       0.165
  YS02001918           JUNCTION      0.00   281.30     0  02:53           0        1.66       0.117
  YS02001619           JUNCTION    337.96   337.96     0  03:01        2.21        2.21       0.560
  YS02001629           JUNCTION      0.00   214.31     0  02:48           0        1.56       1.894
  YS02001641           JUNCTION      0.00   450.99     0  02:48           0        4.08       0.518
  YS02001644           JUNCTION    368.39  1161.73     0  03:21        2.55        9.11       0.287
  YS02001652           JUNCTION      0.00   482.17     0  03:01           0         2.3       1.013
  YS02001655           JUNCTION      0.15   482.51     0  03:01     0.00434        2.33       1.091
  YS02001920           JUNCTION      2.87   281.20     0  02:53      0.0809        1.64       0.187
  YS02001923           JUNCTION      0.04   261.00     0  02:52     0.00106        1.55       0.050
  YS02001926           JUNCTION      0.05   212.67     0  02:53     0.00147        1.53       0.224
  YS02001929           JUNCTION    163.23   163.23     0  03:01        1.53        1.53       0.039
  YS02001658           JUNCTION      0.00   524.36     0  02:42           0        2.35       0.941
  YS02001661           JUNCTION      0.00   726.82     0  02:56           0        3.03      -0.035
  YS02001664           JUNCTION    446.68   446.68     0  03:01        2.35        3.03       0.211
  YS02001622           JUNCTION      0.00   338.28     0  03:01           0        2.19       1.470
  YS02001633           JUNCTION    373.80   451.00     0  02:48        2.63        4.14       0.780
  YS02001649           JUNCTION      0.00   970.23     0  02:49           0        5.36       0.698
  YS02001757           JUNCTION      0.00  1881.01     0  02:50           0        9.51       0.980
  YS02001895           JUNCTION      0.00   517.18     0  03:07           0        3.09       0.166
  YS02001625           JUNCTION      0.00   338.06     0  03:01           0        2.16       1.816
  YS02163301           JUNCTION      0.00   214.78     0  02:48           0        1.54       1.588
  YS02163601           JUNCTION      0.11   451.03     0  02:48      0.0031         4.1       0.736
  YS02164001           JUNCTION      0.00   450.97     0  02:48           0        4.08       0.492
  YS02001647           JUNCTION      0.00   685.66     0  02:49           0        4.41       0.648
  YSB1154              JUNCTION     43.21    43.21     0  03:01       0.127       0.128       1.144
  YSB6556              JUNCTION      0.00    41.77     0  03:01           0       0.129       0.980
  YSB1174              JUNCTION     35.94    35.94     0  03:01      0.0924      0.0931       1.403
  YSB1171              JUNCTION      0.00    73.32     0  03:01           0       0.227       2.865
  YS02006553           JUNCTION      0.00   672.02     0  03:32           0        6.13       0.257
  YS02006561           JUNCTION      0.00   969.07     0  03:01           0        8.97       0.009
  YS02006556           JUNCTION      0.00   672.01     0  03:32           0        6.13       0.187
  YS02006558           JUNCTION    532.26   969.36     0  03:00         2.9           9       0.061
  YS02001783           JUNCTION      0.00   969.09     0  03:00           0        8.97       0.026
  YS02001784           JUNCTION      1.06   970.24     0  03:00      0.0299           9       0.045
  YS02001786           JUNCTION      0.06   970.18     0  03:00     0.00159           9       0.040
  YS02001788           JUNCTION      0.07   970.29     0  03:01       0.002        8.99       0.025
  YS02001790           JUNCTION      0.15   970.35     0  03:00     0.00437           9       0.024
  YS02001791           JUNCTION      0.00   970.39     0  03:00           0        8.99       0.015
  YS02001793           JUNCTION      0.00  1042.21     0  04:57           0        9.01      -0.017
  WS02004139           JUNCTION      0.32   379.64     0  03:30     0.00905        6.42       0.519
  WSC                  OUTFALL       0.00  1048.77     0  03:04           0        15.4       0.000
  3                    OUTFALL       0.00   597.65     0  00:00           0        5.22       0.000
  4                    OUTFALL       0.00   264.40     0  02:50           0       0.499       0.000
  5                    OUTFALL       0.00     0.00     0  00:00           0           0       0.000 ltr
  JK-storage           STORAGE       0.00  1149.50     0  04:57           0        9.16      -6.416
  CC-storage           STORAGE       0.00  1881.16     0  02:50           0        8.22       0.085
  XR-storage           STORAGE     849.17   849.17     0  03:01        10.2        10.8      -0.002
  
  
  **********************
  Node Surcharge Summary
  **********************
  
  Surcharging occurs when water rises above the top of the highest conduit.
  ---------------------------------------------------------------------
                                               Max. Height   Min. Depth
                                   Hours       Above Crown    Below Rim
  Node                 Type      Surcharged         Meters       Meters
  ---------------------------------------------------------------------
  WS02004401           JUNCTION        0.28          0.080        1.580
  WS02004402           JUNCTION        0.31          0.085        1.655
  WS02004403           JUNCTION        0.32          0.078        1.952
  WS02004404           JUNCTION        0.45          0.133        2.647
  WS02004406           JUNCTION        0.40          0.088        2.362
  WS02004405           JUNCTION        0.42          0.115        2.685
  WS02006109           JUNCTION        2.94          0.398        1.422
  WS02006110           JUNCTION        0.80          0.168        1.682
  WS02006112           JUNCTION        1.33          0.344        1.336
  WS02006115           JUNCTION        0.06          0.016        2.234
  WS02006116           JUNCTION        0.10          0.026        2.264
  WS02006230           JUNCTION        0.42          0.236        1.334
  WS02006231           JUNCTION        0.55          0.283        1.247
  WS02006232           JUNCTION        2.82          0.384        1.096
  WS02006234           JUNCTION        0.93          0.311        0.929
  WS02006235           JUNCTION        1.96          0.348        0.942
  WS02006238           JUNCTION        2.32          0.375        1.055
  WS02006240           JUNCTION        0.70          0.476        0.914
  WS02006242           JUNCTION        1.75          0.317        0.503
  WS02006243           JUNCTION        0.21          0.181        0.589
  WS02006245           JUNCTION        0.05          0.281        0.569
  WS02006247           JUNCTION        0.05          0.456        0.304
  WS02006239           JUNCTION        1.00          0.396        0.894
  WS02006252           JUNCTION        2.44          0.193        0.907
  WS02006256           JUNCTION        0.01          1.050        0.000
  WS02006228           JUNCTION        2.82          0.497        1.703
  YS02001748           JUNCTION        5.05          0.450        0.740
  YS02001751           JUNCTION        5.17          0.547        0.653
  YS02001754           JUNCTION        5.30          0.773        0.377
  YS02001762           JUNCTION        5.51          1.038        0.112
  YS02001765           JUNCTION        5.49          0.983        0.117
  YS02001767           JUNCTION        5.47          0.940        0.090
  YS02001770           JUNCTION        5.45          0.888        0.032
  YS02001774           JUNCTION        5.50          0.977        0.073
  YS02001779           JUNCTION        5.30          0.680        0.000
  YS02001882           JUNCTION        1.03          0.654        0.176
  YS02001884           JUNCTION        1.06          0.686        0.184
  YS02001759           JUNCTION        5.54          1.076        0.134
  YS02001887           JUNCTION        1.14          0.762        0.188
  YS02001890           JUNCTION        1.18          0.760        0.000
  YS02001898           JUNCTION        0.99          0.544        0.196
  YS02001901           JUNCTION        1.11          0.684        0.186
  YS02001904           JUNCTION        1.09          0.643        0.207
  YS02001907           JUNCTION        1.66          0.950        0.000
  YS02001910           JUNCTION        1.22          0.794        0.306
  YS02001915           JUNCTION        1.02          0.620        0.380
  YS02001918           JUNCTION        0.79          0.378        0.432
  YS02001619           JUNCTION        5.18          0.551        0.059
  YS02001629           JUNCTION        5.18          0.470        0.000
  YS02001641           JUNCTION        5.50          0.941        0.159
  YS02001644           JUNCTION        5.50          0.920        0.000
  YS02001652           JUNCTION        5.32          1.130        0.000
  YS02001655           JUNCTION        5.20          1.200        0.000
  YS02001920           JUNCTION        0.83          0.415        0.725
  YS02001658           JUNCTION        5.07          1.300        0.000
  YS02001661           JUNCTION        0.25          1.381        0.009
  YS02001622           JUNCTION        5.20          0.552        0.068
  YS02001633           JUNCTION        5.48          0.944        0.116
  YS02001649           JUNCTION        5.52          1.050        0.000
  YS02001757           JUNCTION        5.62          1.176        0.034
  YS02001895           JUNCTION        1.01          0.570        0.180
  YS02001625           JUNCTION        5.42          0.780        0.000
  YS02163301           JUNCTION        5.46          0.900        0.130
  YS02163601           JUNCTION        5.52          1.008        0.072
  YS02164001           JUNCTION        5.49          0.934        0.166
  YS02001647           JUNCTION        5.36          0.806        0.094
  YS02006553           JUNCTION        1.72          0.969        0.221
  YS02006561           JUNCTION        0.91          0.324        0.826
  YS02006556           JUNCTION        1.42          0.892        0.458
  YS02006558           JUNCTION        1.38          0.873        0.527
  YS02001783           JUNCTION        1.46          0.965        0.635
  YS02001784           JUNCTION        1.54          0.899        0.591
  YS02001786           JUNCTION        1.47          0.710        0.720
  YS02001788           JUNCTION        1.46          0.584        0.896
  YS02001790           JUNCTION        1.99          1.157        0.000
  YS02001791           JUNCTION        2.07          0.861        1.059
  YS02001793           JUNCTION        2.40          2.600        0.000
  
  
  *********************
  Node Flooding Summary
  *********************
  
  Flooding refers to all water that overflows a node, whether it ponds or not.
  --------------------------------------------------------------------------
                                                             Total   Maximum
                                 Maximum   Time of Max       Flood    Ponded
                        Hours       Rate    Occurrence      Volume     Depth
  Node                 Flooded       LPS   days hr:min    10^6 ltr    Meters
  --------------------------------------------------------------------------
  WS02006256              0.01    406.11      0  00:00       0.001     0.000
  YS02001779              2.61    416.54      0  03:24       1.409     0.000
  YS02001890              0.23    106.94      0  03:01       0.038     0.000
  YS02001907              0.66    621.95      0  03:01       0.741     0.000
  YS02001629              0.01     17.00      0  02:42       0.000     0.000
  YS02001644              4.06   1161.60      0  03:21       7.173     0.000
  YS02001652              0.01      5.64      0  03:02       0.000     0.000
  YS02001655              0.01     11.94      0  02:56       0.000     0.000
  YS02001658              0.01      8.12      0  02:56       0.000     0.000
  YS02001649              0.11     44.19      0  02:56       0.005     0.000
  YS02001625              1.17    317.73      0  03:01       0.563     0.000
  YS02001790              0.01    217.58      0  05:02       0.000     0.000
  YS02001793              0.01    500.42      0  04:57       0.000     0.000
  JK-storage              1.81    670.42      0  03:01       2.620     0.000
  XR-storage              4.81    662.93      0  03:10       3.468     0.000
  
  
  **********************
  Storage Volume Summary
  **********************
  
  --------------------------------------------------------------------------------------------------
                         Average     Avg  Evap Exfil       Maximum     Max    Time of Max    Maximum
                          Volume    Pcnt  Pcnt  Pcnt        Volume    Pcnt     Occurrence    Outflow
  Storage Unit           1000 m3    Full  Loss  Loss       1000 m3    Full    days hr:min        LPS
  --------------------------------------------------------------------------------------------------
  JK-storage               0.145      50     0     0         0.291     100       0  02:41     831.07
  CC-storage               3.043      19     0     0         3.861      25       0  03:43     400.00
  XR-storage               0.882      95     0     0         0.926     100       0  02:39     379.99
  
  
  ***********************
  Outfall Loading Summary
  ***********************
  
  -----------------------------------------------------------
                         Flow       Avg       Max       Total
                         Freq      Flow      Flow      Volume
  Outfall Node           Pcnt       LPS       LPS    10^6 ltr
  -----------------------------------------------------------
  WSC                   99.99    640.04   1048.77      15.429
  3                     88.31    288.90    597.65       5.217
  4                     46.78     47.78    264.40       0.499
  5                      0.00      0.00      0.00       0.000
  -----------------------------------------------------------
  System                58.77    976.71   1514.07      21.145
  
  
  ********************
  Link Flow Summary
  ********************
  
  -----------------------------------------------------------------------------
                                 Maximum  Time of Max   Maximum    Max/    Max/
                                  |Flow|   Occurrence   |Veloc|    Full    Full
  Link                 Type          LPS  days hr:min     m/sec    Flow   Depth
  -----------------------------------------------------------------------------
  WS02003066WSF200     CONDUIT    772.54     0  03:05      2.95    0.13    0.28
  WS02006287WS02006284 CONDUIT    610.98     0  03:02      2.31    0.28    0.37
  WS02006284WS02006280 CONDUIT    611.97     0  03:02      2.55    0.26    0.35
  WS02006280WS02006229 CONDUIT    612.09     0  03:02      4.12    0.13    0.24
  WS02006229WS02006228 CONDUIT    757.77     0  03:02      1.51    2.51    1.00
  WS02006256WS02006235 CONDUIT    177.52     0  00:01      2.73    1.88    1.00
  WS02006253WS02006251 CONDUIT    134.02     0  03:00      0.59    0.40    1.00
  WS02006252WS02006251 CONDUIT    400.45     0  07:10      3.19    1.47    1.00
  WS02006251WS02006249 CONDUIT    494.87     0  02:50      1.30    1.43    0.98
  WS02006249WS02006248 CONDUIT    358.35     0  02:09      1.18    1.96    0.95
  WS02006248WS02006247 CONDUIT    352.43     0  02:09      1.15    0.77    0.99
  WS02006247WS02006245 CONDUIT    345.05     0  02:09      1.11    2.74    1.00
  WS02006245WS02006243 CONDUIT    337.50     0  02:10      1.14    1.00    1.00
  WS02006243WS02006242 CONDUIT    336.09     0  06:21      0.98    0.72    1.00
  WS02006242WS02006240 CONDUIT    336.63     0  06:21      0.91    1.34    1.00
  WS02006240WS02006239 CONDUIT    339.09     0  06:21      0.95    1.07    1.00
  WS02006239WS02006238 CONDUIT    338.80     0  06:21      0.91    1.08    1.00
  WS02006238WS02006235 CONDUIT    338.49     0  06:21      1.32    0.76    1.00
  WS02006235WS02006234 CONDUIT    394.26     0  05:21      1.04    4.16    1.00
  WS02006234WS02006232 CONDUIT    392.96     0  05:21      1.17    0.79    1.00
  WS02006232WS02006231 CONDUIT    392.77     0  05:22      1.07    0.82    1.00
  WS02006231WS02006230 CONDUIT    390.76     0  05:22      1.35    5.93    1.00
  WS02006230WS02006229 CONDUIT    400.66     0  05:23      1.04    8.92    1.00
  WS02006228WS02006109 CONDUIT    757.82     0  03:02      1.51    3.31    1.00
  WS02006116WS02004401 CONDUIT    774.27     0  03:03      0.99    1.07    1.00
  WS02006115WS02006116 CONDUIT    774.17     0  03:03      0.99    0.99    1.00
  WS02006113WS02006111 CONDUIT    756.59     0  03:03      2.63    0.91    0.70
  WS02006112WS02006115 CONDUIT    773.94     0  03:03      0.99    0.46    1.00
  WS02006111WS02006112 CONDUIT    756.60     0  03:03      1.74    0.36    0.84
  WS02006110WS02006113 CONDUIT    758.99     0  03:02      1.65    0.69    0.86
  WS02006109WS02006110 CONDUIT    759.04     0  03:02      1.51    1.46    1.00
  WS02004411WS02004412 CONDUIT    772.06     0  03:04      1.12    1.10    0.82
  WS02004401WS02004402 CONDUIT    774.30     0  03:03      0.99    0.93    1.00
  WS02004413WS02003067 CONDUIT    771.95     0  03:05      1.36    0.33    0.68
  WS02004412WS02004413 CONDUIT    771.90     0  03:05      1.05    0.52    0.89
  WS02004410WS02004411 CONDUIT    772.56     0  03:04      1.11    1.06    0.83
  WS02004409WS02004410 CONDUIT    773.40     0  03:04      1.11    1.00    0.83
  WS02004407WS02004409 CONDUIT    774.50     0  03:04      1.60    0.27    0.59
  WS02004406WS02004407 CONDUIT    774.70     0  03:03      1.36    0.35    0.68
  WS02004405WS02004406 CONDUIT    774.66     0  03:03      0.99    1.53    1.00
  WS02004404WS02004405 CONDUIT    774.59     0  03:03      0.99    7.59    1.00
  WS02004403WS02004404 CONDUIT    774.41     0  03:03      0.99    0.56    1.00
  WS02004402WS02004403 CONDUIT    774.35     0  03:03      0.99    1.11    1.00
  WS02004139WS02001211 CONDUIT    375.03     0  03:30      0.80    0.47    0.59
  WS02004138WS02004139 CONDUIT    379.32     0  03:30      3.34    0.08    0.43
  WS02003067WS02003066 CONDUIT    772.33     0  03:05      1.48    0.25    0.47
  WS02001213WS02003059 CONDUIT    377.81     0  03:32      0.80    0.62    0.77
  WS02001212WS02001213 CONDUIT    377.97     0  03:31      1.29    0.58    0.46
  WS02001211WS02001212 CONDUIT    378.98     0  03:31      0.76    0.29    0.64
  WS02003072WS02003073 CONDUIT   1047.05     0  03:04      1.80    2.26    0.51
  WS02003069WS02003072 CONDUIT   1047.10     0  03:03      1.68    0.50    0.54
  WS02003060WS02003069 CONDUIT   1047.07     0  03:03      1.92    0.41    0.49
  WS02003059WS02003060 CONDUIT    377.93     0  03:32      0.85    0.25    0.68
  HS02004901HS02004770 CONDUIT     32.24     0  03:01      0.09    0.12    0.50
  HS02004876HS02004881 CONDUIT    119.33     0  03:01      1.17    1.27    0.15
  HS02004870HS02004876 CONDUIT     96.14     0  03:01      0.79    0.06    0.17
  HS02004842HS02004848 CONDUIT     15.11     0  03:01      0.07    0.01    0.33
  HS02004837HS02004842 CONDUIT     16.10     0  03:03      0.41    0.01    0.34
  HS02004830HS02004837 CONDUIT     61.24     0  03:01      0.66    0.06    0.13
  HS02004824HS02004830 CONDUIT     60.79     0  03:01      0.63    0.08    0.15
  HS02004817HS02004824 CONDUIT    117.39     0  03:02      0.30    0.05    0.56
  HS02004770HS02004777 CONDUIT    159.99     0  03:01      0.45    0.29    0.51
  HS02004799HS02004480 CONDUIT    387.39     0  03:01      1.00    0.49    0.56
  HS02004792HS02004799 CONDUIT    353.07     0  03:01      1.12    0.22    0.45
  HS02004788HS02004792 CONDUIT    202.14     0  03:02      1.22    0.13    0.24
  HS02004785HS02004788 CONDUIT    156.69     0  03:02      0.85    1.18    0.26
  HS02004777HS02004785 CONDUIT    157.13     0  03:01      0.53    0.19    0.42
  HS02004480HS02004478 CONDUIT    456.75     0  03:01      1.47    1.92    0.44
  HS02004479HS02004480 CONDUIT     74.07     0  03:02      0.22    0.07    0.53
  HS02004862HS02004870 CONDUIT     73.11     0  03:01      0.77    0.08    0.14
  HS02004848HS02004852 CONDUIT     35.11     0  03:01      0.52    0.04    0.10
  HS02004856HS02004862 CONDUIT     51.23     0  03:01      0.58    0.05    0.13
  HS02004852HS02004856 CONDUIT     35.03     0  03:02      0.32    0.04    0.16
  HS02004802HS02004478 CONDUIT    160.68     0  03:04      0.54    0.14    0.45
  HS02004478WS02006287 CONDUIT    609.84     0  03:02      2.03    0.17    0.33
  HS02004817HS02004807 CONDUIT    120.81     0  03:04      0.24    0.07    0.73
  HS02004807HS02004802 CONDUIT    156.92     0  03:03      0.45    0.30    0.51
  YS02001759YS02001757 CONDUIT    746.22     0  02:54      0.95    0.53    1.00
  YS02001762YS02001759 CONDUIT    374.01     0  02:53      0.48    0.43    1.00
  YS02001765YS02001762 CONDUIT    373.95     0  02:53      0.48    0.35    1.00
  YS02001770YS02001767 CONDUIT    373.40     0  02:53      0.48    1.48    1.00
  YS02001774YS02001770 CONDUIT    416.44     0  03:24      0.53    0.27    1.00
  YS02001779YS02001774 CONDUIT    416.71     0  03:24      0.53    0.21    1.00
  YS02001649YS02001757 CONDUIT    970.14     0  02:49      1.24    0.59    1.00
  YS02001767YS02001765 CONDUIT    374.02     0  02:53      0.48    0.47    1.00
  YS02006561YS02001783 CONDUIT    969.09     0  03:00      2.11    0.50    1.00
  YS02001783YS02001784 CONDUIT    969.18     0  03:00      1.93    1.34    1.00
  YS02001784YS02001785 CONDUIT    970.12     0  03:00      1.93    2.26    1.00
  YS02001788YS02001790 CONDUIT    970.19     0  03:00      2.31    0.72    1.00
  YS02001790YS02001791 CONDUIT    970.39     0  03:00      2.84    1.06    1.00
  YS02001791YS02001793 CONDUIT    970.59     0  03:00      5.64    0.42    1.00
  YS02001910YS02001907 CONDUIT    547.63     0  03:01      0.70    0.31    1.00
  YS02001786YS02001788 CONDUIT    970.22     0  03:01      2.22    1.87    1.00
  YS02001915YS02001910 CONDUIT    547.75     0  03:01      0.70    0.27    1.00
  YS02001918YS02001915 CONDUIT    281.90     0  02:53      0.44    0.16    1.00
  YS02001923YS02001920 CONDUIT    278.33     0  02:53      0.72    0.12    1.00
  YS02001926YS02001923 CONDUIT    260.96     0  02:52      0.82    0.37    0.97
  YS02001929YS02001926 CONDUIT    212.62     0  02:53      0.87    0.10    0.86
  YS02001920YS02001918 CONDUIT    281.30     0  02:53      0.70    0.27    1.00
  YS02001629YS02163301 CONDUIT    214.78     0  02:48      0.27    0.26    1.00
  YS02001619YS02001622 CONDUIT    338.28     0  03:01      0.60    0.50    1.00
  YS02001622YS02001625 CONDUIT    338.06     0  03:01      0.43    0.18    1.00
  YS02001625YS02001629 CONDUIT    214.31     0  02:48      0.27    0.10    1.00
  YS02163301YS02001633 CONDUIT    214.78     0  02:48      0.27    0.20    1.00
  YS02163601YS02164001 CONDUIT    450.97     0  02:48      0.57    0.40    1.00
  YS02164001YS02001641 CONDUIT    450.99     0  02:48      0.57    0.62    1.00
  YS02001641YS02001644 CONDUIT    451.03     0  02:48      0.57    1.46    1.00
  YS02001647YS02001649 CONDUIT    685.68     0  02:49      0.87    0.36    1.00
  YS02006553YS02006556 CONDUIT    672.01     0  03:32      0.86    0.57    1.00
  YS02006556YS02006558 CONDUIT    672.14     0  03:32      0.86    0.53    1.00
  YSB6556YSB1171       CONDUIT     41.33     0  03:02      0.13    0.04    0.80
  YS02001907YS02006553 CONDUIT    672.02     0  03:32      0.75    0.79    1.00
  YS02006558YS02006561 CONDUIT    969.07     0  03:01      3.43    2.14    1.00
  YS02001633YS02163601 CONDUIT    450.92     0  02:48      0.57    0.47    1.00
  YS02001644YS02001647 CONDUIT    685.66     0  02:49      0.87    0.40    1.00
  YS02001745YS02001748 CONDUIT    399.82     0  03:01      1.48    0.15    0.95
  YS02001748YS02001751 CONDUIT    399.86     0  03:01      1.03    0.20    1.00
  YS02001751YS02001754 CONDUIT    399.89     0  03:01      0.84    0.19    1.00
  YS02001754YS02001757 CONDUIT    400.11     0  03:01      0.51    0.16    1.00
  YS02001882YS02001884 CONDUIT     46.80     0  02:47      0.08    0.05    1.00
  YS02001884YS02001887 CONDUIT     60.02     0  02:43      0.08    0.08    1.00
  YS02001890YS02001895 CONDUIT    517.18     0  03:07      0.66    0.24    1.00
  YS02001895YS02001898 CONDUIT    517.18     0  03:07      0.66    0.90    1.00
  YS02001898YS02001901 CONDUIT    517.17     0  03:07      0.66    0.33    1.00
  YS02001901YS02001904 CONDUIT    517.18     0  03:07      0.66    0.80    1.00
  YS02001904YS02001907 CONDUIT    517.06     0  03:07      0.66    0.18    1.00
  YS02001887YS02001890 CONDUIT    623.19     0  03:01      0.79    1.07    1.00
  YS02001652YS02001649 CONDUIT    482.02     0  03:01      0.61    0.24    1.00
  YS02001655YS02001652 CONDUIT    482.17     0  03:01      0.89    0.23    1.00
  YS02001658YS02001655 CONDUIT    482.35     0  03:01      1.18    0.20    1.00
  YS02001661YS02001658 CONDUIT    524.36     0  02:42      1.56    0.21    1.00
  YS02001664YS02001661 CONDUIT    726.82     0  02:56      1.54    0.23    0.73
  YSB1154YSB6556       CONDUIT     41.77     0  03:01      0.19    0.08    0.69
  YSB1174YSB1171       CONDUIT     34.49     0  03:01      0.10    0.05    0.81
  YSB1171HS02004479    CONDUIT     72.19     0  03:02      0.54    0.05    0.65
  HS02004881HS02006253 CONDUIT    131.62     0  03:01      2.13    0.03    0.33
  YS02001793JiankangQianchi CONDUIT   1149.50     0  04:57     14.63    0.09    1.00
  YS02001757CaochengTiaoxuchi CONDUIT   1881.16     0  02:50      2.57    0.83    1.00
  WSF200WS02003060     CONDUIT    773.74     0  03:05      1.97    0.17    0.39
  1                    CONDUIT   1048.77     0  03:04      3.37    0.37    0.42
  2                    CONDUIT    264.40     0  02:50      6.25    0.63    0.58
  3                    CONDUIT    597.65     0  00:00     10.05    0.95    0.86
  4                    CONDUIT      0.00     0  00:00      0.00    0.00    0.00
  CC-Pump-1            PUMP       200.00     0  03:20              1.00
  CC-Pump-2            PUMP       200.00     0  02:06              1.00
  JK-Pump-1            PUMP       300.00     0  00:00              1.00
  JK-Pump-2            PUMP       300.00     0  00:00              1.00
  XR-Pump-1            PUMP        95.00     0  00:00              1.00
  XR-Pump-2            PUMP        95.00     0  01:10              1.00
  XR-Pump-3            PUMP        95.00     0  00:00              1.00
  XR-Pump-4            PUMP        95.00     0  00:00              1.00
  
  
  ***************************
  Flow Classification Summary
  ***************************
  
  -------------------------------------------------------------------------------------
                      Adjusted    ---------- Fraction of Time in Flow Class ---------- 
                       /Actual         Up    Down  Sub   Sup   Up    Down  Norm  Inlet 
  Conduit               Length    Dry  Dry   Dry   Crit  Crit  Crit  Crit  Ltd   Ctrl  
  -------------------------------------------------------------------------------------
  WS02003066WSF200        1.00   0.06  0.00  0.00  0.00  0.94  0.00  0.00  0.57  0.00
  WS02006287WS02006284    1.00   0.03  0.01  0.00  0.59  0.37  0.00  0.00  0.67  0.00
  WS02006284WS02006280    1.00   0.04  0.00  0.00  0.00  0.00  0.00  0.96  0.00  0.00
  WS02006280WS02006229    1.00   0.04  0.00  0.00  0.00  0.00  0.00  0.96  0.00  0.00
  WS02006229WS02006228    1.00   0.00  0.00  0.00  0.99  0.00  0.00  0.01  0.00  0.00
  WS02006256WS02006235    1.00   0.00  0.00  0.00  1.00  0.00  0.00  0.00  0.00  0.00
  WS02006253WS02006251    1.00   0.02  0.01  0.00  0.97  0.00  0.00  0.00  0.00  0.00
  WS02006252WS02006251    1.00   0.06  0.00  0.00  0.00  0.00  0.94  0.00  0.00  0.00
  WS02006251WS02006249    1.00   0.00  0.00  0.00  1.00  0.00  0.00  0.00  0.24  0.00
  WS02006249WS02006248    1.00   0.00  0.02  0.00  0.93  0.00  0.06  0.00  0.00  0.00
  WS02006248WS02006247    1.00   0.02  0.00  0.00  0.97  0.00  0.00  0.01  0.13  0.00
  WS02006247WS02006245    1.00   0.02  0.00  0.00  0.97  0.00  0.00  0.02  0.00  0.00
  WS02006245WS02006243    1.00   0.01  0.00  0.00  0.95  0.00  0.00  0.04  0.01  0.00
  WS02006243WS02006242    1.00   0.01  0.00  0.00  0.99  0.00  0.00  0.00  0.23  0.00
  WS02006242WS02006240    1.00   0.00  0.00  0.00  1.00  0.00  0.00  0.00  0.00  0.00
  WS02006240WS02006239    1.00   0.00  0.00  0.00  0.96  0.00  0.00  0.03  0.02  0.00
  WS02006239WS02006238    1.00   0.00  0.00  0.00  1.00  0.00  0.00  0.00  0.02  0.00
  WS02006238WS02006235    1.00   0.00  0.00  0.00  1.00  0.00  0.00  0.00  0.00  0.00
  WS02006235WS02006234    1.00   0.00  0.00  0.00  0.96  0.00  0.04  0.00  0.00  0.00
  WS02006234WS02006232    1.00   0.00  0.00  0.00  1.00  0.00  0.00  0.00  0.04  0.00
  WS02006232WS02006231    1.00   0.00  0.00  0.00  0.99  0.00  0.01  0.00  0.00  0.00
  WS02006231WS02006230    1.00   0.00  0.00  0.00  0.73  0.00  0.26  0.00  0.00  0.00
  WS02006230WS02006229    1.00   0.00  0.00  0.00  0.98  0.00  0.00  0.02  0.01  0.00
  WS02006228WS02006109    1.00   0.00  0.00  0.00  1.00  0.00  0.00  0.00  0.00  0.00
  WS02006116WS02004401    1.00   0.02  0.00  0.00  0.98  0.00  0.00  0.00  0.00  0.00
  WS02006115WS02006116    1.00   0.02  0.00  0.00  0.97  0.00  0.00  0.01  0.01  0.00
  WS02006113WS02006111    1.00   0.02  0.00  0.00  0.02  0.97  0.00  0.00  0.09  0.00
  WS02006112WS02006115    1.00   0.02  0.00  0.00  0.98  0.00  0.00  0.00  0.00  0.00
  WS02006111WS02006112    1.00   0.02  0.00  0.00  0.98  0.00  0.00  0.00  0.92  0.00
  WS02006110WS02006113    1.00   0.01  0.00  0.00  0.98  0.00  0.00  0.00  0.00  0.00
  WS02006109WS02006110    1.00   0.00  0.01  0.00  0.98  0.00  0.00  0.00  0.00  0.00
  WS02004411WS02004412    1.00   0.04  0.00  0.00  0.96  0.00  0.00  0.00  0.00  0.00
  WS02004401WS02004402    1.00   0.02  0.00  0.00  0.98  0.00  0.00  0.00  0.00  0.00
  WS02004413WS02003067    1.00   0.05  0.01  0.00  0.00  0.00  0.94  0.00  0.00  0.00
  WS02004412WS02004413    1.00   0.05  0.00  0.00  0.95  0.00  0.00  0.00  0.01  0.00
  WS02004410WS02004411    1.00   0.04  0.00  0.00  0.96  0.00  0.00  0.00  0.00  0.00
  WS02004409WS02004410    1.00   0.04  0.00  0.00  0.96  0.00  0.00  0.00  0.00  0.00
  WS02004407WS02004409    1.00   0.04  0.00  0.00  0.95  0.00  0.00  0.00  0.80  0.00
  WS02004406WS02004407    1.00   0.00  0.04  0.00  0.96  0.00  0.00  0.00  0.00  0.00
  WS02004405WS02004406    1.00   0.00  0.00  0.00  1.00  0.00  0.00  0.00  0.02  0.00
  WS02004404WS02004405    1.00   0.00  0.00  0.00  1.00  0.00  0.00  0.00  0.00  0.00
  WS02004403WS02004404    1.00   0.00  0.02  0.00  0.98  0.00  0.00  0.00  0.02  0.00
  WS02004402WS02004403    1.00   0.02  0.00  0.00  0.98  0.00  0.00  0.00  0.00  0.00
  WS02004139WS02001211    1.00   0.00  0.00  0.00  0.99  0.00  0.01  0.00  0.00  0.00
  WS02004138WS02004139    1.00   0.00  0.00  0.00  0.99  0.01  0.00  0.00  1.00  0.00
  WS02003067WS02003066    1.00   0.06  0.00  0.00  0.94  0.00  0.00  0.00  0.00  0.00
  WS02001213WS02003059    1.00   0.00  0.00  0.00  0.99  0.00  0.00  0.00  0.00  0.00
  WS02001212WS02001213    1.00   0.00  0.00  0.00  0.93  0.00  0.07  0.00  0.00  0.00
  WS02001211WS02001212    1.00   0.00  0.00  0.00  1.00  0.00  0.00  0.00  0.00  0.00
  WS02003072WS02003073    1.00   0.00  0.00  0.00  0.00  0.00  0.00  1.00  0.00  0.00
  WS02003069WS02003072    1.00   0.00  0.00  0.00  0.99  0.01  0.00  0.00  0.23  0.00
  WS02003060WS02003069    1.00   0.00  0.00  0.00  0.99  0.01  0.00  0.00  0.16  0.00
  WS02003059WS02003060    1.00   0.00  0.00  0.00  0.99  0.01  0.00  0.00  0.01  0.00
  HS02004901HS02004770    1.00   0.03  0.00  0.00  0.97  0.00  0.00  0.00  0.01  0.00
  HS02004876HS02004881    1.00   0.02  0.00  0.00  0.89  0.09  0.00  0.00  0.00  0.00
  HS02004870HS02004876    1.00   0.01  0.00  0.00  0.99  0.00  0.00  0.00  0.95  0.00
  HS02004842HS02004848    1.00   0.00  0.03  0.00  0.97  0.00  0.00  0.00  0.58  0.00
  HS02004837HS02004842    1.00   0.00  0.00  0.00  0.99  0.01  0.00  0.00  0.11  0.00
  HS02004830HS02004837    1.00   0.00  0.00  0.00  1.00  0.00  0.00  0.00  0.99  0.00
  HS02004824HS02004830    1.00   0.00  0.00  0.00  1.00  0.00  0.00  0.00  0.01  0.00
  HS02004817HS02004824    1.00   0.00  0.00  0.00  1.00  0.00  0.00  0.00  0.98  0.00
  HS02004770HS02004777    1.00   0.00  0.03  0.00  0.97  0.00  0.00  0.00  0.04  0.00
  HS02004799HS02004480    1.00   0.00  0.02  0.00  0.96  0.00  0.02  0.00  0.00  0.00
  HS02004792HS02004799    1.00   0.00  0.00  0.00  0.99  0.01  0.00  0.00  0.98  0.00
  HS02004788HS02004792    1.00   0.00  0.00  0.00  0.99  0.01  0.00  0.00  0.98  0.00
  HS02004785HS02004788    1.00   0.00  0.00  0.00  1.00  0.00  0.00  0.00  0.00  0.00
  HS02004777HS02004785    1.00   0.00  0.00  0.00  1.00  0.00  0.00  0.00  0.15  0.00
  HS02004480HS02004478    1.00   0.04  0.00  0.00  0.68  0.00  0.00  0.29  0.00  0.00
  HS02004479HS02004480    1.00   0.02  0.00  0.00  0.98  0.00  0.00  0.00  0.13  0.00
  HS02004862HS02004870    1.00   0.00  0.00  0.00  1.00  0.00  0.00  0.00  0.06  0.00
  HS02004848HS02004852    1.00   0.03  0.00  0.00  0.97  0.00  0.00  0.00  0.64  0.00
  HS02004856HS02004862    1.00   0.00  0.05  0.00  0.95  0.00  0.00  0.00  0.79  0.00
  HS02004852HS02004856    1.00   0.03  0.00  0.00  0.96  0.00  0.00  0.00  0.81  0.00
  HS02004802HS02004478    1.00   0.03  0.00  0.00  0.96  0.00  0.00  0.00  0.03  0.00
  HS02004478WS02006287    1.00   0.04  0.00  0.00  0.74  0.22  0.00  0.00  0.66  0.00
  HS02004817HS02004807    1.00   0.00  0.03  0.00  0.97  0.00  0.00  0.00  0.01  0.00
  HS02004807HS02004802    1.00   0.03  0.00  0.00  0.96  0.00  0.00  0.00  0.00  0.00
  YS02001759YS02001757    1.00   0.00  0.00  0.00  1.00  0.00  0.00  0.00  0.17  0.00
  YS02001762YS02001759    1.00   0.00  0.00  0.00  1.00  0.00  0.00  0.00  0.04  0.00
  YS02001765YS02001762    1.00   0.00  0.00  0.00  1.00  0.00  0.00  0.00  0.17  0.00
  YS02001770YS02001767    1.00   0.00  0.00  0.00  1.00  0.00  0.00  0.00  0.00  0.00
  YS02001774YS02001770    1.00   0.00  0.03  0.00  0.96  0.00  0.00  0.00  0.04  0.00
  YS02001779YS02001774    1.00   0.00  0.00  0.00  1.00  0.00  0.00  0.00  0.22  0.00
  YS02001649YS02001757    1.00   0.00  0.00  0.00  1.00  0.00  0.00  0.00  0.17  0.00
  YS02001767YS02001765    1.00   0.00  0.00  0.00  1.00  0.00  0.00  0.00  0.01  0.00
  YS02006561YS02001783    1.00   0.05  0.00  0.00  0.35  0.61  0.00  0.00  0.47  0.00
  YS02001783YS02001784    1.00   0.00  0.05  0.00  0.95  0.00  0.00  0.00  0.01  0.00
  YS02001784YS02001785    1.00   0.00  0.00  0.00  1.00  0.00  0.00  0.00  0.21  0.00
  YS02001788YS02001790    1.00   0.00  0.00  0.00  0.42  0.58  0.00  0.00  0.47  0.00
  YS02001790YS02001791    1.00   0.00  0.00  0.00  0.42  0.58  0.00  0.00  0.44  0.00
  YS02001791YS02001793    1.00   0.00  0.00  0.00  0.46  0.54  0.00  0.00  0.04  0.00
  YS02001910YS02001907    1.00   0.00  0.00  0.00  0.98  0.00  0.00  0.02  0.13  0.00
  YS02001786YS02001788    1.00   0.00  0.00  0.00  0.41  0.59  0.00  0.00  0.00  0.00
  YS02001915YS02001910    1.00   0.00  0.00  0.00  0.99  0.01  0.00  0.00  0.19  0.00
  YS02001918YS02001915    1.00   0.00  0.01  0.00  0.99  0.00  0.00  0.00  0.57  0.00
  YS02001923YS02001920    1.00   0.00  0.00  0.00  1.00  0.00  0.00  0.00  0.83  0.00
  YS02001926YS02001923    1.00   0.00  0.03  0.00  0.19  0.00  0.78  0.00  0.00  0.00
  YS02001929YS02001926    1.00   0.00  0.03  0.00  0.97  0.00  0.00  0.00  0.75  0.00
  YS02001920YS02001918    1.00   0.00  0.01  0.00  0.99  0.00  0.00  0.00  0.00  0.00
  YS02001629YS02163301    1.00   0.04  0.00  0.00  0.96  0.00  0.00  0.00  0.00  0.00
  YS02001619YS02001622    1.00   0.03  0.00  0.00  0.97  0.00  0.00  0.00  0.00  0.00
  YS02001622YS02001625    1.00   0.03  0.00  0.00  0.97  0.00  0.00  0.00  0.08  0.00
  YS02001625YS02001629    1.00   0.03  0.02  0.00  0.94  0.00  0.01  0.00  0.00  0.00
  YS02163301YS02001633    1.00   0.00  0.04  0.00  0.96  0.00  0.00  0.00  0.00  0.00
  YS02163601YS02164001    1.00   0.00  0.03  0.00  0.97  0.00  0.00  0.00  0.00  0.00
  YS02164001YS02001641    1.00   0.01  0.02  0.00  0.97  0.00  0.00  0.00  0.06  0.00
  YS02001641YS02001644    1.00   0.00  0.01  0.00  0.99  0.00  0.00  0.00  0.00  0.00
  YS02001647YS02001649    1.00   0.00  0.05  0.00  0.95  0.00  0.00  0.00  0.01  0.00
  YS02006553YS02006556    1.00   0.02  0.00  0.00  0.98  0.00  0.00  0.00  0.03  0.00
  YS02006556YS02006558    1.00   0.00  0.00  0.00  1.00  0.00  0.00  0.00  0.00  0.00
  YSB6556YSB1171          1.00   0.02  0.01  0.00  0.97  0.00  0.00  0.00  0.00  0.00
  YS02001907YS02006553    1.00   0.00  0.01  0.00  0.98  0.00  0.00  0.00  0.00  0.00
  YS02006558YS02006561    1.00   0.05  0.00  0.00  0.23  0.72  0.00  0.00  0.44  0.00
  YS02001633YS02163601    1.00   0.00  0.01  0.00  0.99  0.00  0.00  0.00  0.16  0.00
  YS02001644YS02001647    1.00   0.00  0.05  0.00  0.95  0.00  0.00  0.00  0.00  0.00
  YS02001745YS02001748    1.00   0.00  0.00  0.00  0.89  0.01  0.00  0.10  0.04  0.00
  YS02001748YS02001751    1.00   0.00  0.00  0.00  0.98  0.02  0.00  0.00  0.15  0.00
  YS02001751YS02001754    1.00   0.00  0.00  0.00  0.95  0.00  0.00  0.05  0.02  0.00
  YS02001754YS02001757    1.00   0.00  0.00  0.00  0.99  0.01  0.00  0.00  0.21  0.00
  YS02001882YS02001884    1.00   0.04  0.00  0.00  0.96  0.00  0.00  0.00  0.00  0.00
  YS02001884YS02001887    1.00   0.02  0.01  0.00  0.97  0.00  0.00  0.00  0.00  0.00
  YS02001890YS02001895    1.00   0.00  0.04  0.00  0.96  0.00  0.00  0.00  0.00  0.00
  YS02001895YS02001898    1.00   0.04  0.00  0.00  0.95  0.00  0.01  0.00  0.00  0.00
  YS02001898YS02001901    1.00   0.04  0.00  0.00  0.96  0.00  0.00  0.00  0.03  0.00
  YS02001901YS02001904    1.00   0.04  0.00  0.00  0.96  0.00  0.00  0.00  0.00  0.00
  YS02001904YS02001907    1.00   0.00  0.04  0.00  0.96  0.00  0.00  0.00  0.00  0.00
  YS02001887YS02001890    1.00   0.00  0.00  0.00  0.98  0.00  0.01  0.00  0.00  0.00
  YS02001652YS02001649    1.00   0.00  0.00  0.00  1.00  0.00  0.00  0.00  0.19  0.00
  YS02001655YS02001652    1.00   0.00  0.00  0.00  0.95  0.00  0.00  0.05  0.03  0.00
  YS02001658YS02001655    1.00   0.00  0.04  0.00  0.94  0.02  0.00  0.00  0.13  0.00
  YS02001661YS02001658    1.00   0.04  0.00  0.00  0.89  0.08  0.00  0.00  0.09  0.00
  YS02001664YS02001661    1.00   0.03  0.00  0.00  0.88  0.09  0.00  0.00  0.22  0.00
  YSB1154YSB6556          1.00   0.03  0.00  0.00  0.97  0.00  0.00  0.00  0.02  0.00
  YSB1174YSB1171          1.00   0.02  0.01  0.00  0.97  0.00  0.00  0.00  0.00  0.00
  YSB1171HS02004479       1.00   0.02  0.00  0.00  0.98  0.00  0.00  0.00  0.11  0.00
  HS02004881HS02006253    1.00   0.02  0.00  0.00  0.78  0.03  0.00  0.17  0.62  0.00
  YS02001793JiankangQianchi    1.00   0.00  0.00  0.00  0.61  0.39  0.00  0.00  0.15  0.00
  YS02001757CaochengTiaoxuchi    1.00   0.00  0.06  0.00  0.94  0.00  0.00  0.00  0.00  0.00
  WSF200WS02003060        1.00   0.00  0.06  0.00  0.59  0.35  0.00  0.00  0.10  0.00
  1                       1.00   0.00  0.00  0.00  0.00  1.00  0.00  0.00  0.33  0.00
  2                       1.00   0.53  0.00  0.00  0.00  0.47  0.00  0.00  0.11  0.00
  3                       1.00   0.12  0.00  0.00  0.00  0.88  0.00  0.00  0.05  0.00
  4                       1.00   1.00  0.00  0.00  0.00  0.00  0.00  0.00  0.00  0.00
  
  
  *************************
  Conduit Surcharge Summary
  *************************
  
  ----------------------------------------------------------------------------
                                                           Hours        Hours 
                         --------- Hours Full --------   Above Full   Capacity
  Conduit                Both Ends  Upstream  Dnstream   Normal Flow   Limited
  ----------------------------------------------------------------------------
  WS02006229WS02006228        2.82      3.09      2.82      5.08         2.81
  WS02006256WS02006235        5.91      5.91      7.41      2.96         0.01
  WS02006253WS02006251        0.02      0.02      0.04      0.01         0.01
  WS02006252WS02006251        1.21      1.21      2.44      2.12         0.01
  WS02006251WS02006249        0.01      0.02      0.01      1.30         0.01
  WS02006249WS02006248        0.01      0.01      0.01      4.42         0.01
  WS02006248WS02006247        0.01      0.01      0.05      0.01         0.01
  WS02006247WS02006245        0.05      0.07      0.05      4.92         0.04
  WS02006245WS02006243        0.07      0.07      0.21      0.01         0.01
  WS02006243WS02006242        0.29      0.29      1.75      0.01         0.01
  WS02006242WS02006240        0.70      0.70      2.23      2.34         0.01
  WS02006240WS02006239        0.80      0.80      0.99      0.10         0.01
  WS02006239WS02006238        2.15      2.15      2.32      0.16         0.06
  WS02006238WS02006235        2.19      2.19      2.63      0.01         0.02
  WS02006235WS02006234        0.93      0.93      1.95      5.94         0.01
  WS02006234WS02006232        1.02      1.02      2.82      0.01         0.01
  WS02006232WS02006231        0.55      0.55      2.82      0.01         0.01
  WS02006231WS02006230        0.42      0.42      0.60      5.92         0.01
  WS02006230WS02006229        3.92      4.83      3.92      6.01         3.92
  WS02006228WS02006109        2.94      3.47      2.94      5.71         2.94
  WS02006116WS02004401        0.27      0.27      0.28      0.20         0.22
  WS02006115WS02006116        0.10      0.10      0.10      0.01         0.01
  WS02006112WS02006115        0.06      0.06      1.33      0.01         0.01
  WS02006111WS02006112        0.01      0.01      5.22      0.01         0.01
  WS02006110WS02006113        0.01      0.01      3.24      0.01         0.01
  WS02006109WS02006110        0.80      0.80      3.47      0.81         0.01
  WS02004411WS02004412        0.01      0.01      0.01      0.25         0.01
  WS02004401WS02004402        0.28      0.28      0.31      0.01         0.01
  WS02004410WS02004411        0.01      0.01      0.01      0.17         0.01
  WS02004409WS02004410        0.01      0.01      0.01      0.01         0.01
  WS02004406WS02004407        0.01      0.01      0.40      0.01         0.01
  WS02004405WS02004406        0.40      0.42      0.40      0.98         0.40
  WS02004404WS02004405        0.42      0.45      0.42      5.88         0.42
  WS02004403WS02004404        0.32      0.32      0.45      0.01         0.01
  WS02004402WS02004403        0.31      0.31      0.32      0.27         0.26
  WS02003072WS02003073        0.01      0.01      0.01      5.62         0.01
  HS02004876HS02004881        0.01      0.01      0.01      0.17         0.01
  HS02004785HS02004788        0.01      0.01      0.01      0.10         0.01
  HS02004480HS02004478        0.01      0.01      0.01      0.52         0.01
  YS02001759YS02001757        5.54      5.54      5.62      0.01         0.01
  YS02001762YS02001759        5.51      5.51      5.54      0.01         0.01
  YS02001765YS02001762        5.49      5.49      5.51      0.01         0.01
  YS02001770YS02001767        5.46      5.46      5.47      0.28         0.78
  YS02001774YS02001770        5.45      5.45      5.50      0.01         0.01
  YS02001779YS02001774        5.30      5.30      5.50      0.01         0.01
  YS02001649YS02001757        5.52      5.52      5.62      0.01         0.01
  YS02001767YS02001765        5.47      5.47      5.49      0.01         0.01
  YS02006561YS02001783        0.91      0.91      1.46      0.01         0.01
  YS02001783YS02001784        1.46      1.46      1.54      1.31         1.24
  YS02001784YS02001785        1.47      1.54      1.47      2.22         1.47
  YS02001788YS02001790        1.46      1.46      1.99      0.01         0.01
  YS02001790YS02001791        1.99      1.99      2.07      0.75         0.75
  YS02001791YS02001793        2.07      2.07      2.58      0.01         0.01
  YS02001910YS02001907        1.22      1.22      1.66      0.01         0.01
  YS02001786YS02001788        1.46      1.47      1.46      1.93         1.46
  YS02001915YS02001910        1.02      1.02      1.22      0.01         0.01
  YS02001918YS02001915        0.79      0.79      1.02      0.01         0.01
  YS02001923YS02001920        0.61      0.61      0.83      0.01         0.01
  YS02001920YS02001918        0.79      0.79      0.83      0.01         0.01
  YS02001629YS02163301        5.45      5.45      5.46      0.01         0.01
  YS02001619YS02001622        5.18      5.18      5.20      0.01         0.01
  YS02001622YS02001625        5.20      5.20      5.42      0.01         0.01
  YS02001625YS02001629        5.18      5.18      5.42      0.01         0.01
  YS02163301YS02001633        5.46      5.46      5.49      0.01         0.01
  YS02163601YS02164001        5.49      5.49      5.52      0.01         0.01
  YS02164001YS02001641        5.49      5.49      5.50      0.01         0.02
  YS02001641YS02001644        5.50      5.50      5.50      1.47         1.61
  YS02001647YS02001649        5.36      5.36      5.52      0.01         0.01
  YS02006553YS02006556        1.42      1.42      1.72      0.01         0.01
  YS02006556YS02006558        1.55      1.55      1.77      0.01         0.01
  YS02001907YS02006553        2.24      2.24      2.45      0.01         0.01
  YS02006558YS02006561        1.11      1.38      1.11      2.09         1.11
  YS02001633YS02163601        5.48      5.48      5.52      0.01         0.01
  YS02001644YS02001647        5.36      5.36      5.50      0.01         0.01
  YS02001745YS02001748        0.01      0.01      5.05      0.01         0.01
  YS02001748YS02001751        5.08      5.08      5.17      0.01         0.01
  YS02001751YS02001754        5.17      5.17      5.30      0.01         0.01
  YS02001754YS02001757        5.32      5.32      5.62      0.01         0.01
  YS02001882YS02001884        1.03      1.03      1.06      0.01         0.01
  YS02001884YS02001887        1.12      1.12      1.14      0.01         0.01
  YS02001890YS02001895        1.01      1.01      1.24      0.01         0.01
  YS02001895YS02001898        0.99      0.99      1.01      0.01         0.01
  YS02001898YS02001901        1.02      1.02      1.11      0.01         0.01
  YS02001901YS02001904        1.09      1.09      1.11      0.01         0.01
  YS02001904YS02001907        1.09      1.09      1.74      0.01         0.01
  YS02001887YS02001890        1.18      1.18      1.20      0.07         0.01
  YS02001652YS02001649        5.38      5.38      5.52      0.01         0.01
  YS02001655YS02001652        5.20      5.20      5.32      0.01         0.01
  YS02001658YS02001655        5.07      5.07      5.20      0.01         0.01
  YS02001661YS02001658        0.23      0.23      5.07      0.01         0.01
  YS02001664YS02001661        0.01      0.01      1.17      0.01         0.01
  YS02001793JiankangQianchi        2.40      2.40      3.38      0.01         0.01
  YS02001757CaochengTiaoxuchi        4.87      4.87      5.62      0.01         0.01
  3                           0.01      0.01      0.01      0.01         0.01
  
  
  ***************
  Pumping Summary
  ***************
  
  ---------------------------------------------------------------------------------------------------------
                                                  Min       Avg       Max     Total     Power    % Time Off
                        Percent   Number of      Flow      Flow      Flow    Volume     Usage    Pump Curve
  Pump                 Utilized   Start-Ups       LPS       LPS       LPS  10^6 ltr     Kw-hr    Low   High
  ---------------------------------------------------------------------------------------------------------
  CC-Pump-1               57.39           6      0.00    118.28    200.00     1.919      2.66    0.0    7.3
  CC-Pump-2               68.02           4      0.00    149.12    200.00     2.842      3.56    0.0    6.2
  JK-Pump-1               70.21           9      0.00    198.35    300.00     3.130     32.70    0.0    0.0
  JK-Pump-2               89.37           6      0.00    210.20    300.00     4.024     44.11    0.0    0.0
  XR-Pump-1               93.60           8      0.00     66.81     95.00     1.682     11.42    0.0    0.0
  XR-Pump-2               74.46           5      0.00     74.13     95.00     1.567     10.52    0.0    0.0
  XR-Pump-3               95.74           5      0.00     67.00     95.00     1.767     12.07    0.0    0.0
  XR-Pump-4               76.59           8      0.00     66.05     95.00     1.397      9.72    0.0    0.0
  

  Analysis begun on:  Wed Dec 22 21:09:00 2021
  Analysis ended on:  Wed Dec 22 21:09:05 2021
  Total elapsed time: 00:00:05