
  EPA STORM WATER MANAGEMENT MODEL - VERSION 5.1 (Build 5.3.0.dev0)
  --------------------------------------------------------------

  WARNING 04: minimum elevation drop used for Conduit WS02004404WS02004405
  WARNING 03: negative offset ignored for Link YS02001904YS02001907
  
  *********************************************************
  NOTE: The summary statistics displayed in this report are
  based on results found at every computational time step,  
  not just on results from each reporting time step.
  *********************************************************
  
  ****************
  Analysis Options
  ****************
  Flow Units ............... LPS
  Process Models:
    Rainfall/Runoff ........ YES
    RDII ................... NO
    Snowmelt ............... NO
    Groundwater ............ NO
    Flow Routing ........... YES
    Ponding Allowed ........ NO
    Water Quality .......... NO
  Infiltration Method ...... HORTON
  Flow Routing Method ...... DYNWAVE
  Surcharge Method ......... EXTRAN
  Starting Date ............ 08/28/2015 08:00:00
  Ending Date .............. 08/28/2015 15:50:00
  Antecedent Dry Days ...... 8.0
  Report Time Step ......... 00:01:00
  Wet Time Step ............ 00:01:00
  Dry Time Step ............ 00:01:00
  Routing Time Step ........ 5.00 sec
  Variable Time Step ....... YES
  Maximum Trials ........... 8
  Number of Threads ........ 4
  Head Tolerance ........... 0.001500 m
  
  
  **************************        Volume         Depth
  Runoff Quantity Continuity     hectare-m            mm
  **************************     ---------       -------
  Total Precipitation ......         7.641        16.729
  Evaporation Loss .........         0.000         0.000
  Infiltration Loss ........         1.880         4.117
  Surface Runoff ...........         4.668        10.221
  Final Storage ............         1.093         2.393
  Continuity Error (%) .....        -0.013
  
  
  **************************        Volume        Volume
  Flow Routing Continuity        hectare-m      10^6 ltr
  **************************     ---------     ---------
  Dry Weather Inflow .......         0.616         6.165
  Wet Weather Inflow .......         4.667        46.671
  Groundwater Inflow .......         0.000         0.000
  RDII Inflow ..............         0.000         0.000
  External Inflow ..........         0.102         1.024
  External Outflow .........         2.269        22.693
  Flooding Loss ............         2.689        26.894
  Evaporation Loss .........         0.000         0.000
  Exfiltration Loss ........         0.000         0.000
  Initial Stored Volume ....         0.076         0.761
  Final Stored Volume ......         0.622         6.217
  Continuity Error (%) .....        -2.167
  
  
  *************************
  Highest Continuity Errors
  *************************
  Node HS02004842 (12.71%)
  Node JK-storage (-10.29%)
  Node YS02001884 (9.06%)
  Node HS02004817 (2.32%)
  Node YSB1171 (2.18%)
  
  
  ***************************
  Time-Step Critical Elements
  ***************************
  Link 3 (60.58%)
  Link WS02006252WS02006251 (31.38%)
  Link WS02006238WS02006235 (2.91%)
  
  
  ********************************
  Highest Flow Instability Indexes
  ********************************
  Link YS02163301YS02001633 (48)
  Link YS02163601YS02164001 (48)
  Link YS02001629YS02163301 (47)
  Link YS02001619YS02001622 (45)
  Link YS02164001YS02001641 (44)
  
  
  *************************
  Routing Time Step Summary
  *************************
  Minimum Time Step           :     0.50 sec
  Average Time Step           :     0.74 sec
  Maximum Time Step           :     5.00 sec
  Percent in Steady State     :    -0.00
  Average Iterations per Step :     4.89
  Percent Not Converging      :    22.76
  
  
  ***************************
  Subcatchment Runoff Summary
  ***************************
  
  ------------------------------------------------------------------------------------------------------------------------------
                            Total      Total      Total      Total     Imperv       Perv      Total       Total     Peak  Runoff
                           Precip      Runon       Evap      Infil     Runoff     Runoff     Runoff      Runoff   Runoff   Coeff
  Subcatchment                 mm         mm         mm         mm         mm         mm         mm    10^6 ltr      LPS
  ------------------------------------------------------------------------------------------------------------------------------
  sub0                      16.73       0.00       0.00       0.97      14.29       0.20      14.50        0.01     3.66   0.867
  sub1                      16.73       0.00       0.00       1.58      13.63       0.26      13.89        0.09    24.51   0.830
  sub2                      16.73       0.00       0.00       5.80       9.63       0.39      10.02        0.09    22.91   0.599
  sub3                      16.73       0.00       0.00       5.88       9.59       0.31       9.90        0.22    50.49   0.592
  sub4                      16.73       0.00       0.00       1.65      13.47       0.19      13.66        0.28    60.01   0.817
  sub5                      16.73       0.00       0.00       0.99      14.24       0.18      14.42        0.16    43.61   0.862
  sub7                      16.73       0.00       0.00       1.26      13.97       0.24      14.21        0.05    13.82   0.849
  sub8                      16.73       0.00       0.00       1.27      13.96       0.23      14.19        0.09    25.44   0.848
  sub9                      16.73       0.00       0.00       1.27      13.96       0.23      14.19        0.07    19.02   0.848
  sub10                     16.73       0.00       0.00       1.13      14.10       0.21      14.30        0.16    42.73   0.855
  sub11                     16.73       0.00       0.00       1.12      14.11       0.21      14.33        0.17    47.25   0.857
  sub12                     16.73       0.00       0.00       1.83      13.37       0.35      13.71        0.12    35.87   0.820
  sub14                     16.73       0.00       0.00       1.27      13.95       0.23      14.19        0.14    37.43   0.848
  sub15                     16.73       0.00       0.00       4.53      10.73       0.49      11.22        0.19    51.47   0.671
  sub16                     16.73       0.00       0.00       4.88      10.29       0.64      10.93        0.11    32.57   0.653
  sub17                     16.73       0.00       0.00       4.74      10.44       0.61      11.05        0.09    26.81   0.661
  sub22                     16.73       0.00       0.00       6.60       8.75       0.59       9.34        0.59   160.16   0.558
  sub23                     16.73       0.00       0.00       5.59       9.67       0.60      10.27        0.49   134.74   0.614
  sub60                     16.73       0.00       0.00       1.94      11.65       0.06      11.71        3.55   386.89   0.700
  sub61                     16.73       0.00       0.00       2.75      11.65       0.09      11.73        3.62   476.87   0.701
  sub62                     16.73       0.00       0.00       1.26      12.72       0.07      12.79        3.93   491.27   0.765
  sub63                     16.73       0.00       0.00       4.75      10.14       0.10      10.23        3.10   437.54   0.612
  sub64                     16.73       0.00       0.00       2.45      11.19       0.06      11.26        3.42   367.58   0.673
  sub65                     16.73       0.00       0.00       2.11      11.40       0.06      11.46        3.52   372.98   0.685
  sub66                     16.73       0.00       0.00       4.79       9.55       0.06       9.61        2.95   336.52   0.575
  sub67                     16.73       0.00       0.00       1.24      13.25       0.09      13.35        4.12   605.48   0.798
  sub68                     16.73       0.00       0.00       2.25      12.20       0.10      12.30        3.78   521.64   0.735
  sub69                     16.73       0.00       0.00       2.37      12.50       0.14      12.64        2.95   482.20   0.755
  sub70                     16.73      12.90       0.00       8.98      17.16       1.09      18.25        4.18   460.88   0.616
  sub71                     16.73       0.00       0.00       1.27      12.46       0.07      12.53        2.96   345.19   0.749
  sub72                     16.73       0.00       0.00       1.14      10.39       0.03      10.43        2.12   185.81   0.623
  sub73                     16.73      17.77       0.00       9.78      19.72       1.38      21.10        4.96   482.28   0.612
  sub74                     16.73       0.00       0.00      12.48       3.71       0.07       3.78        1.51   261.10   0.226
  
  
  ******************
  Node Depth Summary
  ******************
  
  ---------------------------------------------------------------------------------
                                 Average  Maximum  Maximum  Time of Max    Reported
                                   Depth    Depth      HGL   Occurrence   Max Depth
  Node                 Type       Meters   Meters   Meters  days hr:min      Meters
  ---------------------------------------------------------------------------------
  WS02001211           JUNCTION     0.66     0.77     5.61     0  07:01        0.77
  WS02001212           JUNCTION     0.39     0.48     5.54     0  06:31        0.48
  WS02001213           JUNCTION     0.63     0.75     5.51     0  01:57        0.75
  WS02003069           JUNCTION     0.46     0.63     5.21     0  01:58        0.63
  WS02003072           JUNCTION     0.53     0.68     5.05     0  01:59        0.68
  WS02003073           JUNCTION     0.32     0.42     4.49     0  01:59        0.42
  WS02003060           JUNCTION     0.41     0.56     5.49     0  01:57        0.56
  WS02003066           JUNCTION     0.25     0.36     5.92     0  01:56        0.36
  WS02003059           JUNCTION     0.69     0.81     5.50     0  01:58        0.81
  WS02003067           JUNCTION     0.61     0.79     6.11     0  01:55        0.79
  WS02004401           JUNCTION     0.74     1.13     7.13     0  01:52        1.13
  WS02004402           JUNCTION     0.77     1.14     7.10     0  01:50        1.13
  WS02004403           JUNCTION     0.78     1.12     7.05     0  01:49        1.12
  WS02004404           JUNCTION     0.86     1.18     7.03     0  01:51        1.17
  WS02004406           JUNCTION     0.86     1.12     6.95     0  01:51        1.11
  WS02004409           JUNCTION     0.55     0.87     6.64     0  01:56        0.87
  WS02004410           JUNCTION     0.57     0.87     6.59     0  01:56        0.87
  WS02004411           JUNCTION     0.58     0.86     6.54     0  01:56        0.86
  WS02004412           JUNCTION     0.59     0.85     6.49     0  01:56        0.85
  WS02004413           JUNCTION     0.75     0.98     6.45     0  01:56        0.98
  WS02004405           JUNCTION     0.85     1.15     7.00     0  01:51        1.15
  WS02006109           JUNCTION     0.83     1.29     7.91     0  01:54        1.28
  WS02006110           JUNCTION     0.81     1.13     7.72     0  01:54        1.13
  WS02006111           JUNCTION     0.26     0.65     7.36     0  01:53        0.65
  WS02006112           JUNCTION     0.92     1.42     7.30     0  01:54        1.41
  WS02006113           JUNCTION     0.38     0.64     7.53     0  01:53        0.64
  WS02006115           JUNCTION     0.64     1.09     7.23     0  01:53        1.09
  WS02006116           JUNCTION     0.72     1.15     7.19     0  01:52        1.14
  WS02006230           JUNCTION     0.83     1.45     8.20     0  01:47        1.42
  WS02006231           JUNCTION     0.56     1.06     8.18     0  01:47        1.05
  WS02006232           JUNCTION     0.70     1.22     8.26     0  01:47        1.14
  WS02006234           JUNCTION     0.62     1.16     8.32     0  01:47        1.03
  WS02006235           JUNCTION     0.65     1.19     8.36     0  01:47        1.03
  WS02006238           JUNCTION     0.67     1.23     8.38     0  01:47        1.05
  WS02006240           JUNCTION     0.57     1.34     8.63     0  01:47        0.95
  WS02006242           JUNCTION     0.62     1.55     8.82     0  01:46        1.00
  WS02006243           JUNCTION     0.50     1.48     8.90     0  01:47        0.87
  WS02006245           JUNCTION     0.47     1.30     8.78     0  01:47        0.81
  WS02006247           JUNCTION     0.48     1.11     8.61     0  01:47        0.79
  WS02006248           JUNCTION     0.43     0.76     8.35     0  01:47        0.71
  WS02006249           JUNCTION     0.45     0.70     8.30     0  01:50        0.70
  WS02006239           JUNCTION     0.63     1.31     8.52     0  01:47        1.02
  WS02006251           JUNCTION     0.44     0.80     8.47     0  01:50        0.80
  WS02006252           JUNCTION     0.37     0.59     8.83     0  02:45        0.59
  WS02006253           JUNCTION     0.47     0.84     8.48     0  01:50        0.82
  WS02006256           JUNCTION     1.10     1.25     8.18     0  01:53        1.25
  WS02004138           JUNCTION     0.15     0.19     7.44     0  00:50        0.19
  WS02004407           JUNCTION     0.25     0.37     6.68     0  01:54        0.37
  WS02006228           JUNCTION     0.85     1.42     8.07     0  01:54        1.41
  WS02006229           JUNCTION     0.83     1.46     8.15     0  01:53        1.46
  WS02006280           JUNCTION     0.08     0.25     8.52     0  01:55        0.25
  WS02006284           JUNCTION     0.39     0.64     9.04     0  01:55        0.64
  WS02006287           JUNCTION     0.12     0.38     9.33     0  01:54        0.38
  WSF200               JUNCTION     0.25     0.40     5.63     0  01:57        0.40
  HS02004901           JUNCTION     0.14     0.36    10.18     0  01:52        0.36
  HS02004881           JUNCTION     0.01     0.05     9.08     0  01:54        0.05
  HS02004876           JUNCTION     0.05     0.16     9.19     0  01:55        0.16
  HS02004870           JUNCTION     0.02     0.09     9.38     0  01:55        0.09
  HS02004862           JUNCTION     0.03     0.11     9.49     0  01:55        0.11
  HS02004856           JUNCTION     0.09     0.15     9.58     0  01:55        0.15
  HS02004852           JUNCTION     0.02     0.07     9.59     0  01:55        0.07
  HS02004848           JUNCTION     0.01     0.07     9.67     0  01:55        0.07
  HS02004842           JUNCTION     0.34     0.40     9.67     0  01:55        0.40
  HS02004837           JUNCTION     0.03     0.09     9.67     0  01:55        0.09
  HS02004830           JUNCTION     0.05     0.10     9.57     0  01:56        0.10
  HS02004824           JUNCTION     0.03     0.12     9.53     0  01:55        0.12
  HS02004817           JUNCTION     0.46     0.69     9.53     0  01:55        0.69
  HS02004807           JUNCTION     0.15     0.36     9.53     0  01:55        0.36
  HS02004802           JUNCTION     0.18     0.39     9.52     0  01:55        0.39
  HS02004799           JUNCTION     0.15     0.45     9.66     0  01:53        0.45
  HS02004792           JUNCTION     0.05     0.20     9.73     0  01:52        0.20
  HS02004788           JUNCTION     0.04     0.15    10.05     0  01:53        0.15
  HS02004785           JUNCTION     0.06     0.23    10.14     0  01:52        0.23
  HS02004777           JUNCTION     0.17     0.37    10.17     0  01:52        0.37
  HS02004770           JUNCTION     0.14     0.35    10.18     0  01:52        0.35
  HS02004480           JUNCTION     0.10     0.37     9.61     0  01:53        0.37
  HS02004479           JUNCTION     0.14     0.41     9.61     0  01:53        0.41
  HS02004478           JUNCTION     0.08     0.27     9.50     0  01:54        0.27
  YS02001745           JUNCTION     0.77     0.92     8.43     0  03:00        0.92
  YS02001748           JUNCTION     1.18     1.36     8.44     0  02:57        1.35
  YS02001751           JUNCTION     1.37     1.97     8.85     0  01:48        1.55
  YS02001754           JUNCTION     1.62     1.95     8.56     0  01:48        1.82
  YS02001762           JUNCTION     1.83     2.04     8.44     0  02:56        2.03
  YS02001765           JUNCTION     1.78     1.99     8.44     0  02:30        1.98
  YS02001767           JUNCTION     1.74     1.95     8.44     0  02:56        1.94
  YS02001770           JUNCTION     1.74     1.93     8.42     0  02:59        1.92
  YS02001774           JUNCTION     1.80     1.99     8.41     0  02:49        1.97
  YS02001779           JUNCTION     1.55     1.68     8.37     0  01:47        1.68
  YS02001882           JUNCTION     0.70     1.65     8.37     0  01:58        1.63
  YS02001884           JUNCTION     0.80     1.75     8.36     0  01:58        1.72
  YS02001759           JUNCTION     1.86     2.08     8.45     0  02:59        2.07
  YS02001887           JUNCTION     0.88     1.81     8.35     0  01:58        1.81
  YS02001890           JUNCTION     0.90     1.81     8.32     0  01:58        1.81
  YS02001898           JUNCTION     0.67     1.57     8.30     0  01:58        1.56
  YS02001901           JUNCTION     0.79     1.68     8.29     0  02:28        1.67
  YS02001904           JUNCTION     0.77     1.64     8.27     0  02:17        1.63
  YS02001907           JUNCTION     1.09     1.96     8.25     0  01:58        1.96
  YS02001910           JUNCTION     0.89     1.79     8.30     0  01:59        1.78
  YS02001915           JUNCTION     0.69     1.61     8.33     0  02:00        1.60
  YS02001918           JUNCTION     0.42     1.31     8.38     0  01:59        1.29
  YS02001619           JUNCTION     1.33     1.61     8.54     0  01:47        1.61
  YS02001629           JUNCTION     1.69     1.85     8.40     0  01:47        1.85
  YS02001641           JUNCTION     1.78     1.94     8.37     0  02:09        1.93
  YS02001644           JUNCTION     1.79     1.92     8.35     0  01:50        1.92
  YS02001652           JUNCTION     1.64     2.16     8.76     0  02:26        2.11
  YS02001655           JUNCTION     1.40     2.17     9.02     0  01:48        1.93
  YS02001920           JUNCTION     0.52     1.40     8.40     0  01:59        1.37
  YS02001923           JUNCTION     0.35     1.16     8.42     0  01:59        1.14
  YS02001926           JUNCTION     0.37     1.01     8.45     0  01:59        0.97
  YS02001929           JUNCTION     0.23     0.77     8.46     0  01:59        0.71
  YS02001658           JUNCTION     1.12     2.16     9.30     0  02:09        1.82
  YS02001661           JUNCTION     0.88     2.25     9.66     0  02:10        2.09
  YS02001664           JUNCTION     0.39     0.57     8.49     0  04:19        0.56
  YS02001622           JUNCTION     1.35     1.62     8.52     0  01:47        1.61
  YS02001633           JUNCTION     1.78     1.95     8.40     0  01:50        1.94
  YS02001649           JUNCTION     1.83     2.05     8.44     0  01:54        2.05
  YS02001757           JUNCTION     1.96     2.18     8.44     0  02:56        2.16
  YS02001895           JUNCTION     0.67     1.57     8.31     0  01:59        1.56
  YS02001625           JUNCTION     1.64     1.78     8.38     0  01:46        1.78
  YS02163301           JUNCTION     1.72     1.90     8.41     0  01:47        1.88
  YS02163601           JUNCTION     1.83     1.99     8.39     0  02:43        1.99
  YS02164001           JUNCTION     1.77     1.92     8.38     0  01:51        1.91
  YS02001647           JUNCTION     1.62     1.80     8.41     0  01:54        1.80
  YSB1154              JUNCTION     0.28     0.56     9.62     0  01:53        0.56
  YSB6556              JUNCTION     0.17     0.44     9.61     0  01:53        0.44
  YSB1174              JUNCTION     0.23     0.50     9.61     0  01:53        0.50
  YSB1171              JUNCTION     0.43     0.71     9.61     0  01:53        0.71
  YS02006553           JUNCTION     1.09     2.16     8.44     0  02:03        1.97
  YS02006561           JUNCTION     0.42     1.74     8.40     0  02:03        1.08
  YS02006556           JUNCTION     1.06     2.36     8.67     0  02:03        1.93
  YS02006558           JUNCTION     1.10     2.49     8.76     0  02:03        1.97
  YS02001783           JUNCTION     0.67     2.27     8.41     0  02:03        1.48
  YS02001784           JUNCTION     0.67     2.29     8.36     0  02:03        1.42
  YS02001786           JUNCTION     0.60     2.22     8.25     0  02:03        1.27
  YS02001788           JUNCTION     0.52     2.28     8.26     0  02:03        1.13
  YS02001790           JUNCTION     0.63     1.96     7.60     0  02:03        1.29
  YS02001791           JUNCTION     0.59     2.07     7.54     0  02:03        1.27
  YS02001793           JUNCTION     0.81     3.60     8.43     0  04:42        1.80
  WS02004139           JUNCTION     0.60     0.71     5.62     0  07:00        0.71
  WSC                  OUTFALL      0.32     0.42     1.09     0  02:00        0.42
  3                    OUTFALL      0.13     0.24     6.24     0  01:53        0.24
  4                    OUTFALL      0.04     0.20     7.20     0  01:50        0.20
  5                    OUTFALL      0.00     0.00     5.00     0  00:00        0.00
  JK-storage           STORAGE      2.90     5.80     6.60     0  02:03        5.80
  CC-storage           STORAGE      1.17     1.40     8.40     0  03:03        1.40
  XR-storage           STORAGE      7.38     7.72     5.72     0  01:54        7.72
  
  
  *******************
  Node Inflow Summary
  *******************
  
  -------------------------------------------------------------------------------------------------
                                  Maximum  Maximum                  Lateral       Total        Flow
                                  Lateral    Total  Time of Max      Inflow      Inflow     Balance
                                   Inflow   Inflow   Occurrence      Volume      Volume       Error
  Node                 Type           LPS      LPS  days hr:min    10^6 ltr    10^6 ltr     Percent
  -------------------------------------------------------------------------------------------------
  WS02001211           JUNCTION      7.35   381.66     0  00:50       0.207        6.51       0.484
  WS02001212           JUNCTION      0.00   377.74     0  00:51           0        6.48       0.259
  WS02001213           JUNCTION      0.00   376.85     0  00:51           0        6.46       0.344
  WS02003069           JUNCTION      0.32  1070.32     0  01:58     0.00902        16.2       0.192
  WS02003072           JUNCTION      0.00  1070.30     0  01:58           0        16.2       0.233
  WS02003073           JUNCTION      1.82  1072.17     0  01:59      0.0514        16.2       0.262
  WS02003060           JUNCTION     16.53  1069.83     0  01:57       0.466        16.3       0.181
  WS02003066           JUNCTION      0.00   828.68     0  01:56           0        9.39       0.055
  WS02003059           JUNCTION      0.00   375.37     0  00:52           0        6.44       0.584
  WS02003067           JUNCTION      0.00   828.54     0  01:56           0         9.4       0.111
  WS02004401           JUNCTION      0.00   830.50     0  01:54           0        9.67       0.252
  WS02004402           JUNCTION      0.00   830.55     0  01:54           0        9.64       0.234
  WS02004403           JUNCTION      0.00   830.53     0  01:54           0        9.62       0.210
  WS02004404           JUNCTION      0.16   830.76     0  01:54     0.00457         9.6       0.156
  WS02004406           JUNCTION      0.00   830.90     0  01:54           0        9.57       0.378
  WS02004409           JUNCTION      0.00   830.57     0  01:54           0        9.52       0.209
  WS02004410           JUNCTION      0.00   829.06     0  01:55           0         9.5       0.232
  WS02004411           JUNCTION      0.00   828.57     0  01:55           0        9.48       0.234
  WS02004412           JUNCTION      0.00   828.43     0  01:56           0        9.46       0.248
  WS02004413           JUNCTION      0.00   828.53     0  01:56           0        9.44       0.357
  WS02004405           JUNCTION      0.04   830.85     0  01:54     0.00107        9.59       0.232
  WS02006109           JUNCTION      1.23   804.55     0  01:52      0.0347        9.71       0.207
  WS02006110           JUNCTION      0.00   804.55     0  01:52           0        9.69       0.236
  WS02006111           JUNCTION      0.00   804.61     0  01:53           0        9.66       0.057
  WS02006112           JUNCTION     26.81   830.78     0  01:54      0.0948        9.75       0.331
  WS02006113           JUNCTION      0.00   804.55     0  01:52           0        9.67       0.120
  WS02006115           JUNCTION      0.00   830.78     0  01:54           0        9.71       0.246
  WS02006116           JUNCTION      0.00   830.76     0  01:54           0        9.69       0.231
  WS02006230           JUNCTION     10.28   397.33     0  06:45        0.29        7.03       0.223
  WS02006231           JUNCTION      0.00   387.97     0  06:22           0        6.75       0.194
  WS02006232           JUNCTION      0.00   388.05     0  06:22           0        6.76       0.259
  WS02006234           JUNCTION      0.00   389.28     0  06:41           0        6.77       0.153
  WS02006235           JUNCTION      0.00   389.35     0  06:41           0        6.83       0.180
  WS02006238           JUNCTION      0.00   328.87     0  04:50           0        4.83       0.185
  WS02006240           JUNCTION      0.00   332.18     0  04:50           0        4.83       0.333
  WS02006242           JUNCTION      0.00   335.09     0  04:51           0        4.84       0.385
  WS02006243           JUNCTION      0.00   335.67     0  04:51           0        4.84       0.126
  WS02006245           JUNCTION      0.00   340.19     0  06:01           0        4.85       0.287
  WS02006247           JUNCTION      0.00   346.55     0  06:01           0        4.86       0.216
  WS02006248           JUNCTION      0.00   351.86     0  06:00           0        4.87       0.153
  WS02006249           JUNCTION      0.00   522.72     0  01:50           0         5.8       0.262
  WS02006239           JUNCTION      0.00   330.44     0  04:50           0        4.83       0.300
  WS02006251           JUNCTION      0.08   528.57     0  01:50     0.00217        5.84       0.242
  WS02006252           JUNCTION      0.00   400.00     0  02:40           0        5.28       0.009
  WS02006253           JUNCTION      3.66   142.87     0  01:54      0.0117       0.565       1.421
  WS02006256           JUNCTION      0.00   620.24     0  01:53           0        7.63       0.040
  WS02004138           JUNCTION      0.00   379.98     0  06:30           0        6.33       0.061
  WS02004407           JUNCTION      0.00   830.82     0  01:54           0        9.53       0.093
  WS02006228           JUNCTION      0.00   803.32     0  01:52           0        9.69       0.155
  WS02006229           JUNCTION      0.00   805.58     0  01:50           0        9.71       0.145
  WS02006280           JUNCTION      0.00   656.04     0  01:55           0         2.7       0.001
  WS02006284           JUNCTION      0.10   655.96     0  01:55      0.0027         2.7       0.040
  WS02006287           JUNCTION      0.00   655.80     0  01:54           0         2.7       0.027
  WSF200               JUNCTION      0.00   828.65     0  01:56           0        9.39       0.056
  HS02004901           JUNCTION     32.57    32.57     0  01:50       0.114       0.115       1.559
  HS02004881           JUNCTION     13.82   139.59     0  01:54      0.0479       0.529       0.091
  HS02004876           JUNCTION     24.51   126.37     0  01:54      0.0923       0.482       0.114
  HS02004870           JUNCTION     25.44   102.13     0  01:54      0.0907        0.39       0.027
  HS02004862           JUNCTION     23.11    77.53     0  01:55       0.099       0.299       0.058
  HS02004856           JUNCTION     19.02    54.51     0  01:55      0.0682       0.202       0.722
  HS02004852           JUNCTION      0.00    36.10     0  01:55           0       0.134       0.042
  HS02004848           JUNCTION     50.49    50.49     0  01:57       0.223       0.223       0.020
  HS02004842           JUNCTION      0.00    15.55     0  02:06           0       0.102      14.564
  HS02004837           JUNCTION     49.08    62.50     0  01:55       0.337       0.426       0.189
  HS02004830           JUNCTION      0.15    62.61     0  01:55     0.00423       0.416       0.297
  HS02004824           JUNCTION     60.06   122.20     0  01:58       0.286       0.702       0.077
  HS02004817           JUNCTION      0.60   124.03     0  01:59      0.0169       0.718       2.378
  HS02004807           JUNCTION     47.25   168.28     0  01:57       0.166       0.868       0.499
  HS02004802           JUNCTION      0.00   169.24     0  01:58           0       0.865       0.461
  HS02004799           JUNCTION     37.43   414.52     0  01:52       0.135        1.57       0.167
  HS02004792           JUNCTION    160.44   377.30     0  01:52       0.598        1.44       0.028
  HS02004788           JUNCTION     53.14   218.54     0  01:52        0.24       0.839       0.046
  HS02004785           JUNCTION      0.15   165.59     0  01:52     0.00423       0.601       0.082
  HS02004777           JUNCTION      0.03   165.80     0  01:51    0.000846       0.601       0.872
  HS02004770           JUNCTION    134.74   166.64     0  01:51        0.49       0.602       0.515
  HS02004480           JUNCTION      0.00   492.22     0  01:53           0        1.85       0.064
  HS02004479           JUNCTION      0.00    78.00     0  01:53           0       0.292       0.252
  HS02004478           JUNCTION      0.00   655.76     0  01:54           0         2.7       0.013
  YS02001745           JUNCTION    386.89   386.89     0  02:16        3.55        3.55       0.274
  YS02001748           JUNCTION      0.04   396.20     0  02:16     0.00127        3.54       0.650
  YS02001751           JUNCTION      0.01   396.06     0  02:16     0.00031        3.52       0.681
  YS02001754           JUNCTION      0.26   396.33     0  02:16     0.00733         3.5       0.702
  YS02001762           JUNCTION      0.00   436.69     0  02:04           0           2       1.057
  YS02001765           JUNCTION      0.00   436.82     0  02:04           0           2       1.222
  YS02001767           JUNCTION      0.54   436.69     0  02:04      0.0151        2.02       1.791
  YS02001770           JUNCTION    491.42   562.50     0  03:01        3.94        4.35       0.725
  YS02001774           JUNCTION      0.00   562.76     0  03:01           0        2.73       0.916
  YS02001779           JUNCTION      0.01   563.17     0  03:01    0.000141         2.7       0.568
  YS02001882           JUNCTION      0.00    16.65     0  01:52           0      0.0329       8.013
  YS02001884           JUNCTION      0.00    42.56     0  01:53           0      0.0692       9.959
  YS02001759           JUNCTION    476.91   871.38     0  02:04        3.62        5.17       0.442
  YS02001887           JUNCTION    605.93   606.22     0  02:16        4.13        4.16       0.210
  YS02001890           JUNCTION      0.00   606.18     0  02:15           0        4.11       0.236
  YS02001898           JUNCTION      0.00   524.74     0  01:58           0           4       0.070
  YS02001901           JUNCTION      0.00   525.03     0  01:58           0           4       0.191
  YS02001904           JUNCTION      0.00   525.24     0  01:58           0        3.99       0.167
  YS02001907           JUNCTION      0.00  1080.99     0  02:00           0        9.13       0.265
  YS02001910           JUNCTION      0.00   563.78     0  02:00           0        5.15       0.229
  YS02001915           JUNCTION    345.21   563.62     0  02:00        2.96        5.19       0.127
  YS02001918           JUNCTION      0.00   280.59     0  02:00           0        2.25       0.093
  YS02001619           JUNCTION    336.52   336.52     0  02:16        2.95        2.95       0.411
  YS02001629           JUNCTION      0.00   241.65     0  01:47           0        1.44       2.011
  YS02001641           JUNCTION      0.00   417.68     0  01:51           0        4.85       0.431
  YS02001644           JUNCTION    367.62  1359.26     0  03:01        3.42        12.3       0.211
  YS02001652           JUNCTION      0.00   475.24     0  02:16           0        3.05       0.745
  YS02001655           JUNCTION      0.15   474.75     0  02:16     0.00434        3.08       0.830
  YS02001920           JUNCTION      2.87   280.66     0  02:00      0.0809        2.23       0.144
  YS02001923           JUNCTION      0.04   288.06     0  02:00     0.00106        2.14       0.045
  YS02001926           JUNCTION      0.05   207.72     0  02:00     0.00147        2.13       0.155
  YS02001929           JUNCTION    185.81   185.81     0  03:01        2.12        2.12       0.029
  YS02001658           JUNCTION      0.00   494.96     0  02:16           0         3.1       0.753
  YS02001661           JUNCTION      0.00   775.30     0  02:05           0        3.73      -0.137
  YS02001664           JUNCTION    437.54   437.54     0  02:16         3.1        3.73       0.119
  YS02001622           JUNCTION      0.00   336.73     0  02:16           0        2.94       1.092
  YS02001633           JUNCTION    373.18   417.97     0  01:51        3.53        4.92       0.650
  YS02001649           JUNCTION      0.00   978.15     0  02:00           0        6.66       0.554
  YS02001757           JUNCTION      0.00  2137.37     0  02:03           0        10.8       0.857
  YS02001895           JUNCTION      0.00   524.37     0  01:58           0           4       0.137
  YS02001625           JUNCTION      0.00   336.60     0  02:16           0        2.91       1.362
  YS02163301           JUNCTION      0.00   226.67     0  01:48           0        1.44       1.682
  YS02163601           JUNCTION      0.11   417.92     0  01:51      0.0031        4.87       0.615
  YS02164001           JUNCTION      0.00   417.71     0  01:51           0        4.85       0.407
  YS02001647           JUNCTION      0.00   633.85     0  01:51           0        5.65       0.501
  YSB1154              JUNCTION     43.61    43.61     0  01:53       0.163       0.164       0.888
  YSB6556              JUNCTION      0.00    43.64     0  01:53           0       0.165       0.764
  YSB1174              JUNCTION     35.87    35.87     0  01:50        0.12        0.12       1.078
  YSB1171              JUNCTION      0.00    78.03     0  01:52           0       0.291       2.227
  YS02006553           JUNCTION      0.00   699.61     0  01:58           0        7.21       0.217
  YS02006561           JUNCTION      0.00  1145.04     0  02:02           0          11       0.008
  YS02006556           JUNCTION      0.00   699.75     0  01:58           0        7.21       0.159
  YS02006558           JUNCTION    522.52  1145.41     0  02:02        3.81          11       0.050
  YS02001783           JUNCTION      0.00  1144.90     0  02:02           0          11       0.024
  YS02001784           JUNCTION      1.06  1146.04     0  02:03      0.0299          11       0.034
  YS02001786           JUNCTION      0.06  1146.04     0  02:03     0.00159          11       0.034
  YS02001788           JUNCTION      0.07  1146.12     0  02:03       0.002          11       0.019
  YS02001790           JUNCTION      0.15  1154.82     0  02:02     0.00437          11       0.026
  YS02001791           JUNCTION      0.00  1256.13     0  01:59           0          11       0.004
  YS02001793           JUNCTION      0.00  1211.50     0  01:59           0          11      -0.002
  WS02004139           JUNCTION      0.32   379.67     0  00:50     0.00905        6.33       0.518
  WSC                  OUTFALL       0.00  1072.20     0  02:00           0        16.2       0.000
  3                    OUTFALL       0.00   620.25     0  01:53           0         5.6       0.000
  4                    OUTFALL       0.00   337.33     0  01:50           0        0.92       0.000
  5                    OUTFALL       0.00     0.00     0  00:00           0           0       0.000 ltr
  JK-storage           STORAGE       0.00  1209.37     0  01:59           0        11.1      -9.328
  CC-storage           STORAGE       0.00  2137.26     0  02:03           0         8.7       0.688
  XR-storage           STORAGE     844.69   844.69     0  03:01        12.1        12.7      -0.002
  
  
  **********************
  Node Surcharge Summary
  **********************
  
  Surcharging occurs when water rises above the top of the highest conduit.
  ---------------------------------------------------------------------
                                               Max. Height   Min. Depth
                                   Hours       Above Crown    Below Rim
  Node                 Type      Surcharged         Meters       Meters
  ---------------------------------------------------------------------
  WS02004401           JUNCTION        0.52          0.133        1.527
  WS02004402           JUNCTION        0.56          0.139        1.601
  WS02004403           JUNCTION        0.57          0.124        1.906
  WS02004404           JUNCTION        0.86          0.175        2.605
  WS02004406           JUNCTION        0.72          0.117        2.333
  WS02004405           JUNCTION        0.78          0.153        2.647
  WS02006109           JUNCTION        3.11          0.472        1.348
  WS02006110           JUNCTION        1.48          0.223        1.627
  WS02006112           JUNCTION        1.58          0.415        1.265
  WS02006115           JUNCTION        0.33          0.079        2.171
  WS02006116           JUNCTION        0.37          0.086        2.204
  WS02006230           JUNCTION        0.80          0.373        1.197
  WS02006231           JUNCTION        1.23          0.349        1.181
  WS02006232           JUNCTION        3.25          0.519        0.961
  WS02006234           JUNCTION        1.50          0.441        0.799
  WS02006235           JUNCTION        2.41          0.484        0.806
  WS02006238           JUNCTION        2.83          0.514        0.916
  WS02006240           JUNCTION        1.48          0.631        0.759
  WS02006242           JUNCTION        2.37          0.820        0.000
  WS02006243           JUNCTION        0.64          0.770        0.000
  WS02006245           JUNCTION        0.17          0.589        0.261
  WS02006247           JUNCTION        0.16          0.405        0.355
  WS02006248           JUNCTION        0.01          0.039        0.341
  WS02006239           JUNCTION        1.52          0.570        0.720
  WS02006252           JUNCTION        2.68          0.193        0.907
  WS02006228           JUNCTION        2.94          0.588        1.612
  YS02001748           JUNCTION        5.99          0.282        0.908
  YS02001751           JUNCTION        6.02          0.973        0.227
  YS02001754           JUNCTION        6.05          0.898        0.252
  YS02001762           JUNCTION        6.09          1.042        0.108
  YS02001765           JUNCTION        6.08          0.990        0.110
  YS02001767           JUNCTION        6.07          0.946        0.084
  YS02001770           JUNCTION        6.07          0.900        0.020
  YS02001774           JUNCTION        6.08          0.986        0.064
  YS02001779           JUNCTION        6.04          0.680        0.000
  YS02001882           JUNCTION        1.75          0.653        0.177
  YS02001884           JUNCTION        1.79          0.686        0.184
  YS02001759           JUNCTION        6.09          1.082        0.128
  YS02001887           JUNCTION        1.87          0.762        0.188
  YS02001890           JUNCTION        1.90          0.760        0.000
  YS02001898           JUNCTION        1.71          0.539        0.201
  YS02001901           JUNCTION        1.83          0.677        0.193
  YS02001904           JUNCTION        1.81          0.638        0.212
  YS02001907           JUNCTION        2.25          0.950        0.000
  YS02001910           JUNCTION        1.94          0.794        0.306
  YS02001915           JUNCTION        1.75          0.613        0.387
  YS02001918           JUNCTION        1.50          0.310        0.500
  YS02001619           JUNCTION        6.02          0.610        0.000
  YS02001629           JUNCTION        6.02          0.470        0.000
  YS02001641           JUNCTION        6.08          0.936        0.164
  YS02001644           JUNCTION        6.08          0.920        0.000
  YS02001652           JUNCTION        6.05          1.130        0.000
  YS02001655           JUNCTION        6.02          1.167        0.033
  YS02001920           JUNCTION        1.54          0.395        0.745
  YS02001926           JUNCTION        0.01          0.008        0.892
  YS02001658           JUNCTION        5.99          1.160        0.140
  YS02001661           JUNCTION        0.33          1.184        0.206
  YS02001622           JUNCTION        6.02          0.620        0.000
  YS02001633           JUNCTION        6.08          0.928        0.132
  YS02001649           JUNCTION        6.08          1.050        0.000
  YS02001757           JUNCTION        6.12          1.180        0.030
  YS02001895           JUNCTION        1.73          0.567        0.183
  YS02001625           JUNCTION        6.05          0.780        0.000
  YS02163301           JUNCTION        6.07          0.898        0.132
  YS02163601           JUNCTION        6.09          0.990        0.090
  YS02164001           JUNCTION        6.08          0.917        0.183
  YS02001647           JUNCTION        6.05          0.803        0.097
  YS02006553           JUNCTION        2.29          1.156        0.034
  YS02006561           JUNCTION        1.59          0.943        0.207
  YS02006556           JUNCTION        2.11          1.323        0.027
  YS02006558           JUNCTION        2.09          1.389        0.011
  YS02001783           JUNCTION        2.14          1.471        0.129
  YS02001784           JUNCTION        2.17          1.490        0.000
  YS02001786           JUNCTION        2.08          1.423        0.007
  YS02001788           JUNCTION        1.95          1.480        0.000
  YS02001790           JUNCTION        2.48          1.157        0.000
  YS02001791           JUNCTION        2.55          1.268        0.652
  YS02001793           JUNCTION        2.72          2.600        0.000
  
  
  *********************
  Node Flooding Summary
  *********************
  
  Flooding refers to all water that overflows a node, whether it ponds or not.
  --------------------------------------------------------------------------
                                                             Total   Maximum
                                 Maximum   Time of Max       Flood    Ponded
                        Hours       Rate    Occurrence      Volume     Depth
  Node                 Flooded       LPS   days hr:min    10^6 ltr    Meters
  --------------------------------------------------------------------------
  WS02006242              0.01     81.27      0  01:46       0.000     0.000
  WS02006243              0.01     26.57      0  01:47       0.000     0.000
  YS02001779              3.43    563.15      0  03:01       2.685     0.000
  YS02001890              0.55     90.04      0  02:15       0.100     0.000
  YS02001907              1.37    585.68      0  02:16       1.913     0.000
  YS02001619              0.01     55.54      0  01:48       0.000     0.000
  YS02001629              0.01    196.45      0  01:47       0.001     0.000
  YS02001644              4.78   1359.15      0  03:01      10.585     0.000
  YS02001652              0.01      2.70      0  02:26       0.000     0.000
  YS02001622              0.01     70.79      0  01:47       0.000     0.000
  YS02001649              0.12     38.34      0  02:13       0.005     0.000
  YS02001625              2.05    326.02      0  02:16       1.447     0.000
  YS02001784              0.01      8.30      0  02:03       0.000     0.000
  YS02001788              0.01    130.02      0  02:03       0.000     0.000
  YS02001790              0.01    147.82      0  02:03       0.000     0.000
  YS02001793              0.01    508.39      0  04:42       0.000     0.000
  JK-storage              2.29    968.37      0  02:20       4.654     0.000
  XR-storage              4.30    811.94      0  02:40       5.503     0.000
  
  
  **********************
  Storage Volume Summary
  **********************
  
  --------------------------------------------------------------------------------------------------
                         Average     Avg  Evap Exfil       Maximum     Max    Time of Max    Maximum
                          Volume    Pcnt  Pcnt  Pcnt        Volume    Pcnt     Occurrence    Outflow
  Storage Unit           1000 m3    Full  Loss  Loss       1000 m3    Full    days hr:min        LPS
  --------------------------------------------------------------------------------------------------
  JK-storage               0.146      50     0     0         0.291     100       0  02:03     884.92
  CC-storage               3.252      21     0     0         3.892      25       0  03:03     400.00
  XR-storage               0.885      96     0     0         0.926     100       0  01:54     379.98
  
  
  ***********************
  Outfall Loading Summary
  ***********************
  
  -----------------------------------------------------------
                         Flow       Avg       Max       Total
                         Freq      Flow      Flow      Volume
  Outfall Node           Pcnt       LPS       LPS    10^6 ltr
  -----------------------------------------------------------
  WSC                  100.00    641.74   1072.20      16.168
  3                     94.50    265.82    620.25       5.605
  4                     49.06     77.86    337.33       0.920
  5                      0.00      0.00      0.00       0.000
  -----------------------------------------------------------
  System                60.89    985.42   1809.06      22.693
  
  
  ********************
  Link Flow Summary
  ********************
  
  -----------------------------------------------------------------------------
                                 Maximum  Time of Max   Maximum    Max/    Max/
                                  |Flow|   Occurrence   |Veloc|    Full    Full
  Link                 Type          LPS  days hr:min     m/sec    Flow   Depth
  -----------------------------------------------------------------------------
  WS02003066WSF200     CONDUIT    828.65     0  01:56      2.99    0.14    0.29
  WS02006287WS02006284 CONDUIT    655.86     0  01:55      2.36    0.30    0.38
  WS02006284WS02006280 CONDUIT    656.04     0  01:55      2.59    0.27    0.36
  WS02006280WS02006229 CONDUIT    656.04     0  01:55      4.19    0.14    0.27
  WS02006229WS02006228 CONDUIT    803.32     0  01:52      1.60    2.66    1.00
  WS02006256WS02006235 CONDUIT    158.12     0  00:13      2.30    1.67    1.00
  WS02006253WS02006251 CONDUIT    154.78     0  01:51      0.59    0.46    1.00
  WS02006252WS02006251 CONDUIT    400.54     0  02:41      3.19    1.47    1.00
  WS02006251WS02006249 CONDUIT    522.72     0  01:50      1.36    1.51    1.00
  WS02006249WS02006248 CONDUIT    351.86     0  06:00      1.16    1.93    0.99
  WS02006248WS02006247 CONDUIT    346.55     0  06:01      1.12    0.75    1.00
  WS02006247WS02006245 CONDUIT    340.19     0  06:01      1.08    2.70    1.00
  WS02006245WS02006243 CONDUIT    335.67     0  04:51      1.09    0.99    1.00
  WS02006243WS02006242 CONDUIT    335.09     0  04:51      0.95    0.72    1.00
  WS02006242WS02006240 CONDUIT    332.18     0  04:50      0.91    1.32    1.00
  WS02006240WS02006239 CONDUIT    330.44     0  04:50      0.95    1.04    1.00
  WS02006239WS02006238 CONDUIT    328.87     0  04:50      0.90    1.05    1.00
  WS02006238WS02006235 CONDUIT    327.06     0  04:50      0.91    0.73    1.00
  WS02006235WS02006234 CONDUIT    389.28     0  06:41      1.04    4.11    1.00
  WS02006234WS02006232 CONDUIT    388.05     0  06:22      1.02    0.79    1.00
  WS02006232WS02006231 CONDUIT    387.97     0  06:22      1.06    0.81    1.00
  WS02006231WS02006230 CONDUIT    387.05     0  06:45      1.36    5.87    1.00
  WS02006230WS02006229 CONDUIT    397.39     0  06:46      1.03    8.84    1.00
  WS02006228WS02006109 CONDUIT    803.32     0  01:52      1.60    3.51    1.00
  WS02006116WS02004401 CONDUIT    830.50     0  01:54      1.06    1.14    1.00
  WS02006115WS02006116 CONDUIT    830.76     0  01:54      1.06    1.07    1.00
  WS02006113WS02006111 CONDUIT    804.61     0  01:53      2.65    0.96    0.80
  WS02006112WS02006115 CONDUIT    830.78     0  01:54      1.06    0.49    1.00
  WS02006111WS02006112 CONDUIT    805.15     0  01:54      1.79    0.38    0.90
  WS02006110WS02006113 CONDUIT    804.55     0  01:52      1.74    0.73    0.90
  WS02006109WS02006110 CONDUIT    804.55     0  01:52      1.60    1.55    1.00
  WS02004411WS02004412 CONDUIT    828.43     0  01:56      1.16    1.18    0.85
  WS02004401WS02004402 CONDUIT    830.55     0  01:54      1.06    1.00    1.00
  WS02004413WS02003067 CONDUIT    828.54     0  01:56      1.42    0.35    0.70
  WS02004412WS02004413 CONDUIT    828.53     0  01:56      1.10    0.55    0.91
  WS02004410WS02004411 CONDUIT    828.57     0  01:55      1.15    1.13    0.86
  WS02004409WS02004410 CONDUIT    829.06     0  01:55      1.15    1.07    0.87
  WS02004407WS02004409 CONDUIT    830.57     0  01:54      1.68    0.29    0.62
  WS02004406WS02004407 CONDUIT    830.82     0  01:54      1.45    0.37    0.69
  WS02004405WS02004406 CONDUIT    830.90     0  01:54      1.06    1.64    1.00
  WS02004404WS02004405 CONDUIT    830.81     0  01:54      1.06    8.14    1.00
  WS02004403WS02004404 CONDUIT    830.60     0  01:54      1.06    0.60    1.00
  WS02004402WS02004403 CONDUIT    830.53     0  01:54      1.06    1.19    1.00
  WS02004139WS02001211 CONDUIT    374.31     0  00:50      0.69    0.47    0.58
  WS02004138WS02004139 CONDUIT    379.35     0  00:50      2.95    0.08    0.43
  WS02003067WS02003066 CONDUIT    828.68     0  01:56      1.54    0.27    0.48
  WS02001213WS02003059 CONDUIT    375.37     0  00:52      0.68    0.62    0.77
  WS02001212WS02001213 CONDUIT    376.85     0  00:51      1.31    0.58    0.45
  WS02001211WS02001212 CONDUIT    377.74     0  00:51      0.77    0.29    0.62
  WS02003072WS02003073 CONDUIT   1070.35     0  01:59      1.81    2.31    0.52
  WS02003069WS02003072 CONDUIT   1070.30     0  01:58      1.69    0.52    0.55
  WS02003060WS02003069 CONDUIT   1070.00     0  01:58      1.92    0.42    0.49
  WS02003059WS02003060 CONDUIT    373.66     0  07:02      0.93    0.24    0.68
  HS02004901HS02004770 CONDUIT     31.96     0  01:52      0.09    0.12    0.51
  HS02004876HS02004881 CONDUIT    126.38     0  01:55      1.20    1.34    0.15
  HS02004870HS02004876 CONDUIT    102.10     0  01:55      0.82    0.07    0.18
  HS02004842HS02004848 CONDUIT     15.55     0  02:06      0.07    0.01    0.33
  HS02004837HS02004842 CONDUIT     15.96     0  02:07      0.42    0.01    0.35
  HS02004830HS02004837 CONDUIT     62.46     0  01:55      0.66    0.06    0.14
  HS02004824HS02004830 CONDUIT     62.57     0  01:56      0.62    0.08    0.16
  HS02004817HS02004824 CONDUIT    123.43     0  01:59      0.31    0.06    0.58
  HS02004770HS02004777 CONDUIT    165.77     0  01:51      0.46    0.30    0.52
  HS02004799HS02004480 CONDUIT    414.30     0  01:53      1.02    0.52    0.58
  HS02004792HS02004799 CONDUIT    377.20     0  01:52      1.15    0.23    0.47
  HS02004788HS02004792 CONDUIT    218.44     0  01:53      1.24    0.14    0.25
  HS02004785HS02004788 CONDUIT    165.54     0  01:53      0.86    1.25    0.27
  HS02004777HS02004785 CONDUIT    165.44     0  01:52      0.54    0.20    0.44
  HS02004480HS02004478 CONDUIT    492.13     0  01:53      1.52    2.07    0.46
  HS02004479HS02004480 CONDUIT     78.30     0  01:54      0.27    0.08    0.55
  HS02004862HS02004870 CONDUIT     77.52     0  01:55      0.79    0.08    0.14
  HS02004848HS02004852 CONDUIT     36.10     0  01:55      0.52    0.04    0.10
  HS02004856HS02004862 CONDUIT     54.46     0  01:55      0.59    0.05    0.13
  HS02004852HS02004856 CONDUIT     36.15     0  01:56      0.33    0.04    0.16
  HS02004802HS02004478 CONDUIT    170.22     0  01:58      0.53    0.15    0.47
  HS02004478WS02006287 CONDUIT    655.80     0  01:54      2.08    0.18    0.35
  HS02004817HS02004807 CONDUIT    125.36     0  01:59      0.24    0.07    0.75
  HS02004807HS02004802 CONDUIT    169.24     0  01:58      0.47    0.32    0.53
  YS02001759YS02001757 CONDUIT    871.45     0  02:04      1.11    0.62    1.00
  YS02001762YS02001759 CONDUIT    436.98     0  02:04      0.56    0.50    1.00
  YS02001765YS02001762 CONDUIT    436.69     0  02:04      0.56    0.41    1.00
  YS02001770YS02001767 CONDUIT    436.15     0  02:04      0.56    1.73    1.00
  YS02001774YS02001770 CONDUIT    562.76     0  03:01      0.72    0.36    1.00
  YS02001779YS02001774 CONDUIT    563.17     0  03:01      0.72    0.28    1.00
  YS02001649YS02001757 CONDUIT    978.47     0  02:00      1.25    0.59    1.00
  YS02001767YS02001765 CONDUIT    436.82     0  02:04      0.56    0.55    1.00
  YS02006561YS02001783 CONDUIT   1144.90     0  02:02      2.28    0.59    1.00
  YS02001783YS02001784 CONDUIT   1144.98     0  02:03      2.28    1.58    1.00
  YS02001784YS02001785 CONDUIT   1145.98     0  02:03      2.28    2.67    1.00
  YS02001788YS02001790 CONDUIT   1154.66     0  02:02      2.72    0.85    1.00
  YS02001790YS02001791 CONDUIT   1256.13     0  01:59      3.38    1.37    1.00
  YS02001791YS02001793 CONDUIT   1211.50     0  01:59      6.65    0.52    1.00
  YS02001910YS02001907 CONDUIT    563.63     0  02:00      0.72    0.32    1.00
  YS02001786YS02001788 CONDUIT   1146.05     0  02:03      2.46    2.21    1.00
  YS02001915YS02001910 CONDUIT    563.78     0  02:00      0.72    0.28    1.00
  YS02001918YS02001915 CONDUIT    280.84     0  02:00      0.46    0.15    1.00
  YS02001923YS02001920 CONDUIT    277.79     0  02:00      0.78    0.12    1.00
  YS02001926YS02001923 CONDUIT    288.02     0  02:00      0.87    0.41    0.96
  YS02001929YS02001926 CONDUIT    207.67     0  02:00      0.93    0.10    0.87
  YS02001920YS02001918 CONDUIT    280.59     0  02:00      0.76    0.27    1.00
  YS02001629YS02163301 CONDUIT    226.67     0  01:48      0.29    0.28    1.00
  YS02001619YS02001622 CONDUIT    336.73     0  02:16      0.76    0.50    1.00
  YS02001622YS02001625 CONDUIT    336.60     0  02:16      0.43    0.18    1.00
  YS02001625YS02001629 CONDUIT    209.99     0  01:47      0.31    0.10    1.00
  YS02163301YS02001633 CONDUIT    226.38     0  01:48      0.29    0.21    1.00
  YS02163601YS02164001 CONDUIT    417.71     0  01:51      0.53    0.37    1.00
  YS02164001YS02001641 CONDUIT    417.68     0  01:51      0.53    0.57    1.00
  YS02001641YS02001644 CONDUIT    418.05     0  01:51      0.53    1.35    1.00
  YS02001647YS02001649 CONDUIT    634.11     0  01:51      0.81    0.33    1.00
  YS02006553YS02006556 CONDUIT    699.75     0  01:58      0.89    0.60    1.00
  YS02006556YS02006558 CONDUIT    699.66     0  01:58      0.89    0.55    1.00
  YSB6556YSB1171       CONDUIT     43.98     0  01:54      0.13    0.05    0.82
  YS02001907YS02006553 CONDUIT    699.61     0  01:58      0.78    0.82    1.00
  YS02006558YS02006561 CONDUIT   1145.04     0  02:02      4.05    2.53    1.00
  YS02001633YS02163601 CONDUIT    417.81     0  01:51      0.53    0.44    1.00
  YS02001644YS02001647 CONDUIT    633.85     0  01:51      0.81    0.37    1.00
  YS02001745YS02001748 CONDUIT    396.15     0  02:16      1.73    0.15    0.96
  YS02001748YS02001751 CONDUIT    396.05     0  02:16      1.26    0.20    1.00
  YS02001751YS02001754 CONDUIT    396.07     0  02:16      1.03    0.19    1.00
  YS02001754YS02001757 CONDUIT    396.17     0  02:16      0.50    0.16    1.00
  YS02001882YS02001884 CONDUIT     16.65     0  01:52      0.12    0.02    1.00
  YS02001884YS02001887 CONDUIT     42.56     0  01:53      0.09    0.06    1.00
  YS02001890YS02001895 CONDUIT    524.37     0  01:58      0.67    0.24    1.00
  YS02001895YS02001898 CONDUIT    524.74     0  01:58      0.67    0.91    1.00
  YS02001898YS02001901 CONDUIT    525.03     0  01:58      0.67    0.34    1.00
  YS02001901YS02001904 CONDUIT    525.24     0  01:58      0.67    0.81    1.00
  YS02001904YS02001907 CONDUIT    525.75     0  01:58      0.67    0.18    1.00
  YS02001887YS02001890 CONDUIT    606.18     0  02:15      0.77    1.04    1.00
  YS02001652YS02001649 CONDUIT    475.67     0  02:16      0.61    0.24    1.00
  YS02001655YS02001652 CONDUIT    475.24     0  02:16      1.09    0.23    1.00
  YS02001658YS02001655 CONDUIT    474.60     0  02:16      1.45    0.20    1.00
  YS02001661YS02001658 CONDUIT    494.96     0  02:16      1.85    0.19    1.00
  YS02001664YS02001661 CONDUIT    775.30     0  02:05      1.75    0.24    0.75
  YSB1154YSB6556       CONDUIT     43.64     0  01:53      0.17    0.08    0.72
  YSB1174YSB1171       CONDUIT     35.14     0  01:50      0.10    0.05    0.83
  YSB1171HS02004479    CONDUIT     78.00     0  01:53      0.54    0.05    0.67
  HS02004881HS02006253 CONDUIT    139.58     0  01:55      2.25    0.03    0.39
  YS02001793JiankangQianchi CONDUIT   1209.37     0  01:59     14.97    0.10    1.00
  YS02001757CaochengTiaoxuchi CONDUIT   2137.26     0  02:03      3.76    0.94    1.00
  WSF200WS02003060     CONDUIT    828.38     0  01:57      2.03    0.18    0.40
  1                    CONDUIT   1072.20     0  02:00      3.39    0.37    0.42
  2                    CONDUIT    337.33     0  01:50      6.57    0.81    0.68
  3                    CONDUIT    620.25     0  01:53     10.03    0.99    0.82
  4                    CONDUIT      0.00     0  00:00      0.00    0.00    0.00
  CC-Pump-1            PUMP       200.00     0  02:20              1.00
  CC-Pump-2            PUMP       200.00     0  02:40              1.00
  JK-Pump-1            PUMP       300.00     0  01:50              1.00
  JK-Pump-2            PUMP       300.00     0  01:41              1.00
  XR-Pump-1            PUMP        95.00     0  00:00              1.00
  XR-Pump-2            PUMP        95.00     0  00:20              1.00
  XR-Pump-3            PUMP        95.00     0  00:00              1.00
  XR-Pump-4            PUMP        95.00     0  00:30              1.00
  
  
  ***************************
  Flow Classification Summary
  ***************************
  
  -------------------------------------------------------------------------------------
                      Adjusted    ---------- Fraction of Time in Flow Class ---------- 
                       /Actual         Up    Down  Sub   Sup   Up    Down  Norm  Inlet 
  Conduit               Length    Dry  Dry   Dry   Crit  Crit  Crit  Crit  Ltd   Ctrl  
  -------------------------------------------------------------------------------------
  WS02003066WSF200        1.00   0.05  0.01  0.00  0.00  0.94  0.00  0.00  0.56  0.00
  WS02006287WS02006284    1.00   0.03  0.01  0.00  0.59  0.37  0.00  0.00  0.65  0.00
  WS02006284WS02006280    1.00   0.04  0.00  0.00  0.00  0.00  0.00  0.96  0.00  0.00
  WS02006280WS02006229    1.00   0.04  0.00  0.00  0.00  0.02  0.00  0.94  0.01  0.00
  WS02006229WS02006228    1.00   0.00  0.00  0.00  1.00  0.00  0.00  0.00  0.00  0.00
  WS02006256WS02006235    1.00   0.00  0.00  0.00  0.99  0.00  0.00  0.00  0.00  0.00
  WS02006253WS02006251    1.00   0.02  0.01  0.00  0.97  0.00  0.00  0.00  0.00  0.00
  WS02006252WS02006251    1.00   0.05  0.00  0.00  0.00  0.00  0.95  0.00  0.00  0.00
  WS02006251WS02006249    1.00   0.00  0.00  0.00  1.00  0.00  0.00  0.00  0.22  0.00
  WS02006249WS02006248    1.00   0.00  0.00  0.00  0.90  0.00  0.10  0.00  0.00  0.00
  WS02006248WS02006247    1.00   0.00  0.00  0.00  0.98  0.00  0.00  0.02  0.10  0.00
  WS02006247WS02006245    1.00   0.00  0.00  0.00  0.98  0.00  0.00  0.02  0.00  0.00
  WS02006245WS02006243    1.00   0.01  0.00  0.00  0.97  0.00  0.00  0.03  0.01  0.00
  WS02006243WS02006242    1.00   0.01  0.00  0.00  0.99  0.00  0.00  0.00  0.14  0.00
  WS02006242WS02006240    1.00   0.00  0.00  0.00  0.99  0.00  0.00  0.00  0.00  0.00
  WS02006240WS02006239    1.00   0.00  0.00  0.00  0.97  0.00  0.00  0.02  0.01  0.00
  WS02006239WS02006238    1.00   0.00  0.00  0.00  1.00  0.00  0.00  0.00  0.00  0.00
  WS02006238WS02006235    1.00   0.00  0.00  0.00  1.00  0.00  0.00  0.00  0.00  0.00
  WS02006235WS02006234    1.00   0.00  0.00  0.00  0.97  0.00  0.02  0.00  0.00  0.00
  WS02006234WS02006232    1.00   0.00  0.00  0.00  1.00  0.00  0.00  0.00  0.03  0.00
  WS02006232WS02006231    1.00   0.00  0.00  0.00  0.99  0.00  0.00  0.00  0.00  0.00
  WS02006231WS02006230    1.00   0.00  0.00  0.00  0.78  0.00  0.22  0.00  0.00  0.00
  WS02006230WS02006229    1.00   0.00  0.00  0.00  0.99  0.00  0.00  0.01  0.00  0.00
  WS02006228WS02006109    1.00   0.00  0.00  0.00  1.00  0.00  0.00  0.00  0.00  0.00
  WS02006116WS02004401    1.00   0.02  0.00  0.00  0.98  0.00  0.00  0.00  0.00  0.00
  WS02006115WS02006116    1.00   0.02  0.00  0.00  0.97  0.00  0.00  0.01  0.00  0.00
  WS02006113WS02006111    1.00   0.01  0.00  0.00  0.07  0.92  0.00  0.00  0.09  0.00
  WS02006112WS02006115    1.00   0.02  0.00  0.00  0.98  0.00  0.00  0.00  0.00  0.00
  WS02006111WS02006112    1.00   0.02  0.00  0.00  0.98  0.00  0.00  0.00  0.86  0.00
  WS02006110WS02006113    1.00   0.00  0.01  0.00  0.99  0.00  0.00  0.00  0.00  0.00
  WS02006109WS02006110    1.00   0.00  0.00  0.00  1.00  0.00  0.00  0.00  0.00  0.00
  WS02004411WS02004412    1.00   0.03  0.00  0.00  0.97  0.00  0.00  0.00  0.00  0.00
  WS02004401WS02004402    1.00   0.02  0.00  0.00  0.98  0.00  0.00  0.00  0.00  0.00
  WS02004413WS02003067    1.00   0.03  0.01  0.00  0.00  0.00  0.95  0.00  0.00  0.00
  WS02004412WS02004413    1.00   0.03  0.00  0.00  0.97  0.00  0.00  0.00  0.03  0.00
  WS02004410WS02004411    1.00   0.03  0.00  0.00  0.97  0.00  0.00  0.00  0.02  0.00
  WS02004409WS02004410    1.00   0.03  0.00  0.00  0.97  0.00  0.00  0.00  0.00  0.00
  WS02004407WS02004409    1.00   0.03  0.00  0.00  0.97  0.00  0.00  0.00  0.87  0.00
  WS02004406WS02004407    1.00   0.00  0.03  0.00  0.97  0.00  0.00  0.00  0.00  0.00
  WS02004405WS02004406    1.00   0.00  0.00  0.00  1.00  0.00  0.00  0.00  0.03  0.00
  WS02004404WS02004405    1.00   0.00  0.00  0.00  1.00  0.00  0.00  0.00  0.00  0.00
  WS02004403WS02004404    1.00   0.00  0.02  0.00  0.98  0.00  0.00  0.00  0.01  0.00
  WS02004402WS02004403    1.00   0.02  0.00  0.00  0.98  0.00  0.00  0.00  0.00  0.00
  WS02004139WS02001211    1.00   0.00  0.00  0.00  1.00  0.00  0.00  0.00  0.00  0.00
  WS02004138WS02004139    1.00   0.00  0.00  0.00  1.00  0.00  0.00  0.00  1.00  0.00
  WS02003067WS02003066    1.00   0.05  0.01  0.00  0.94  0.00  0.00  0.00  0.00  0.00
  WS02001213WS02003059    1.00   0.00  0.00  0.00  1.00  0.00  0.00  0.00  0.00  0.00
  WS02001212WS02001213    1.00   0.00  0.00  0.00  0.91  0.00  0.09  0.00  0.00  0.00
  WS02001211WS02001212    1.00   0.00  0.00  0.00  1.00  0.00  0.00  0.00  0.00  0.00
  WS02003072WS02003073    1.00   0.00  0.00  0.00  0.00  0.00  0.00  1.00  0.00  0.00
  WS02003069WS02003072    1.00   0.00  0.00  0.00  1.00  0.00  0.00  0.00  0.19  0.00
  WS02003060WS02003069    1.00   0.00  0.00  0.00  0.98  0.02  0.00  0.00  0.11  0.00
  WS02003059WS02003060    1.00   0.00  0.00  0.00  1.00  0.00  0.00  0.00  0.01  0.00
  HS02004901HS02004770    1.00   0.03  0.00  0.00  0.97  0.00  0.00  0.00  0.00  0.00
  HS02004876HS02004881    1.00   0.00  0.00  0.00  0.86  0.14  0.00  0.00  0.00  0.00
  HS02004870HS02004876    1.00   0.00  0.00  0.00  0.99  0.01  0.00  0.00  0.95  0.00
  HS02004842HS02004848    1.00   0.00  0.03  0.00  0.97  0.00  0.00  0.00  0.57  0.00
  HS02004837HS02004842    1.00   0.00  0.00  0.00  1.00  0.00  0.00  0.00  0.11  0.00
  HS02004830HS02004837    1.00   0.00  0.00  0.00  1.00  0.00  0.00  0.00  0.99  0.00
  HS02004824HS02004830    1.00   0.00  0.00  0.00  1.00  0.00  0.00  0.00  0.03  0.00
  HS02004817HS02004824    1.00   0.00  0.00  0.00  1.00  0.00  0.00  0.00  0.94  0.00
  HS02004770HS02004777    1.00   0.00  0.03  0.00  0.97  0.00  0.00  0.00  0.03  0.00
  HS02004799HS02004480    1.00   0.00  0.01  0.00  0.96  0.00  0.03  0.00  0.00  0.00
  HS02004792HS02004799    1.00   0.00  0.00  0.00  1.00  0.00  0.00  0.00  0.98  0.00
  HS02004788HS02004792    1.00   0.00  0.00  0.00  1.00  0.00  0.00  0.00  0.98  0.00
  HS02004785HS02004788    1.00   0.00  0.00  0.00  1.00  0.00  0.00  0.00  0.00  0.00
  HS02004777HS02004785    1.00   0.00  0.00  0.00  1.00  0.00  0.00  0.00  0.13  0.00
  HS02004480HS02004478    1.00   0.04  0.00  0.00  0.65  0.00  0.00  0.32  0.00  0.00
  HS02004479HS02004480    1.00   0.01  0.00  0.00  0.99  0.00  0.00  0.00  0.12  0.00
  HS02004862HS02004870    1.00   0.00  0.00  0.00  1.00  0.00  0.00  0.00  0.04  0.00
  HS02004848HS02004852    1.00   0.03  0.00  0.00  0.97  0.00  0.00  0.00  0.78  0.00
  HS02004856HS02004862    1.00   0.00  0.04  0.00  0.96  0.00  0.00  0.00  0.82  0.00
  HS02004852HS02004856    1.00   0.03  0.00  0.00  0.96  0.00  0.00  0.00  0.77  0.00
  HS02004802HS02004478    1.00   0.04  0.00  0.00  0.96  0.00  0.00  0.00  0.03  0.00
  HS02004478WS02006287    1.00   0.04  0.00  0.00  0.71  0.25  0.00  0.00  0.62  0.00
  HS02004817HS02004807    1.00   0.00  0.03  0.00  0.97  0.00  0.00  0.00  0.01  0.00
  HS02004807HS02004802    1.00   0.03  0.00  0.00  0.96  0.00  0.00  0.00  0.00  0.00
  YS02001759YS02001757    1.00   0.00  0.00  0.00  1.00  0.00  0.00  0.00  0.16  0.00
  YS02001762YS02001759    1.00   0.00  0.00  0.00  1.00  0.00  0.00  0.00  0.03  0.00
  YS02001765YS02001762    1.00   0.00  0.00  0.00  1.00  0.00  0.00  0.00  0.14  0.00
  YS02001770YS02001767    1.00   0.00  0.00  0.00  1.00  0.00  0.00  0.00  0.00  0.00
  YS02001774YS02001770    1.00   0.00  0.04  0.00  0.96  0.00  0.00  0.00  0.03  0.00
  YS02001779YS02001774    1.00   0.00  0.00  0.00  1.00  0.00  0.00  0.00  0.18  0.00
  YS02001649YS02001757    1.00   0.00  0.00  0.00  1.00  0.00  0.00  0.00  0.16  0.00
  YS02001767YS02001765    1.00   0.00  0.00  0.00  1.00  0.00  0.00  0.00  0.00  0.00
  YS02006561YS02001783    1.00   0.04  0.00  0.00  0.43  0.53  0.00  0.00  0.46  0.00
  YS02001783YS02001784    1.00   0.00  0.04  0.00  0.96  0.00  0.00  0.00  0.00  0.00
  YS02001784YS02001785    1.00   0.00  0.00  0.00  1.00  0.00  0.00  0.00  0.17  0.00
  YS02001788YS02001790    1.00   0.00  0.00  0.00  0.45  0.55  0.00  0.00  0.43  0.00
  YS02001790YS02001791    1.00   0.00  0.00  0.00  0.41  0.59  0.00  0.00  0.42  0.00
  YS02001791YS02001793    1.00   0.00  0.00  0.00  0.44  0.56  0.00  0.00  0.03  0.00
  YS02001910YS02001907    1.00   0.00  0.00  0.00  0.99  0.00  0.00  0.00  0.12  0.00
  YS02001786YS02001788    1.00   0.00  0.00  0.00  0.46  0.54  0.00  0.00  0.00  0.00
  YS02001915YS02001910    1.00   0.00  0.00  0.00  0.99  0.01  0.00  0.00  0.16  0.00
  YS02001918YS02001915    1.00   0.00  0.00  0.00  1.00  0.00  0.00  0.00  0.52  0.00
  YS02001923YS02001920    1.00   0.00  0.00  0.00  1.00  0.00  0.00  0.00  0.74  0.00
  YS02001926YS02001923    1.00   0.00  0.03  0.00  0.27  0.00  0.70  0.00  0.00  0.00
  YS02001929YS02001926    1.00   0.00  0.03  0.00  0.97  0.00  0.00  0.00  0.66  0.00
  YS02001920YS02001918    1.00   0.00  0.00  0.00  1.00  0.00  0.00  0.00  0.00  0.00
  YS02001629YS02163301    1.00   0.04  0.00  0.00  0.96  0.00  0.00  0.00  0.00  0.00
  YS02001619YS02001622    1.00   0.03  0.00  0.00  0.97  0.00  0.00  0.00  0.00  0.00
  YS02001622YS02001625    1.00   0.03  0.00  0.00  0.97  0.00  0.00  0.00  0.05  0.00
  YS02001625YS02001629    1.00   0.03  0.01  0.00  0.95  0.00  0.01  0.00  0.00  0.00
  YS02163301YS02001633    1.00   0.00  0.04  0.00  0.96  0.00  0.00  0.00  0.00  0.00
  YS02163601YS02164001    1.00   0.00  0.03  0.00  0.97  0.00  0.00  0.00  0.00  0.00
  YS02164001YS02001641    1.00   0.00  0.03  0.00  0.97  0.00  0.00  0.00  0.06  0.00
  YS02001641YS02001644    1.00   0.00  0.00  0.00  1.00  0.00  0.00  0.00  0.00  0.00
  YS02001647YS02001649    1.00   0.00  0.04  0.00  0.96  0.00  0.00  0.00  0.01  0.00
  YS02006553YS02006556    1.00   0.00  0.00  0.00  1.00  0.00  0.00  0.00  0.03  0.00
  YS02006556YS02006558    1.00   0.00  0.00  0.00  1.00  0.00  0.00  0.00  0.00  0.00
  YSB6556YSB1171          1.00   0.02  0.02  0.00  0.97  0.00  0.00  0.00  0.00  0.00
  YS02001907YS02006553    1.00   0.00  0.00  0.00  1.00  0.00  0.00  0.00  0.00  0.00
  YS02006558YS02006561    1.00   0.04  0.00  0.00  0.30  0.66  0.00  0.00  0.42  0.00
  YS02001633YS02163601    1.00   0.00  0.00  0.00  1.00  0.00  0.00  0.00  0.15  0.00
  YS02001644YS02001647    1.00   0.00  0.04  0.00  0.96  0.00  0.00  0.00  0.00  0.00
  YS02001745YS02001748    1.00   0.00  0.00  0.00  0.93  0.00  0.00  0.07  0.01  0.00
  YS02001748YS02001751    1.00   0.00  0.00  0.00  0.98  0.02  0.00  0.00  0.14  0.00
  YS02001751YS02001754    1.00   0.00  0.00  0.00  0.95  0.00  0.00  0.05  0.01  0.00
  YS02001754YS02001757    1.00   0.00  0.00  0.00  1.00  0.00  0.00  0.00  0.18  0.00
  YS02001882YS02001884    1.00   0.04  0.00  0.00  0.96  0.00  0.00  0.00  0.00  0.00
  YS02001884YS02001887    1.00   0.02  0.01  0.00  0.97  0.00  0.00  0.00  0.00  0.00
  YS02001890YS02001895    1.00   0.00  0.04  0.00  0.96  0.00  0.00  0.00  0.00  0.00
  YS02001895YS02001898    1.00   0.04  0.00  0.00  0.96  0.00  0.00  0.00  0.00  0.00
  YS02001898YS02001901    1.00   0.04  0.00  0.00  0.96  0.00  0.00  0.00  0.01  0.00
  YS02001901YS02001904    1.00   0.04  0.00  0.00  0.96  0.00  0.00  0.00  0.00  0.00
  YS02001904YS02001907    1.00   0.00  0.04  0.00  0.96  0.00  0.00  0.00  0.00  0.00
  YS02001887YS02001890    1.00   0.00  0.00  0.00  0.99  0.00  0.01  0.00  0.00  0.00
  YS02001652YS02001649    1.00   0.00  0.00  0.00  1.00  0.00  0.00  0.00  0.16  0.00
  YS02001655YS02001652    1.00   0.00  0.00  0.00  0.95  0.00  0.00  0.05  0.01  0.00
  YS02001658YS02001655    1.00   0.00  0.04  0.00  0.94  0.02  0.00  0.00  0.02  0.00
  YS02001661YS02001658    1.00   0.04  0.00  0.00  0.93  0.04  0.00  0.00  0.00  0.00
  YS02001664YS02001661    1.00   0.03  0.00  0.00  0.93  0.03  0.00  0.00  0.10  0.00
  YSB1154YSB6556          1.00   0.03  0.00  0.00  0.97  0.00  0.00  0.00  0.02  0.00
  YSB1174YSB1171          1.00   0.02  0.01  0.00  0.97  0.00  0.00  0.00  0.00  0.00
  YSB1171HS02004479       1.00   0.02  0.00  0.00  0.98  0.00  0.00  0.01  0.11  0.00
  HS02004881HS02006253    1.00   0.02  0.00  0.00  0.81  0.01  0.00  0.16  0.68  0.00
  YS02001793JiankangQianchi    1.00   0.00  0.00  0.00  0.58  0.42  0.00  0.00  0.13  0.00
  YS02001757CaochengTiaoxuchi    1.00   0.00  0.05  0.00  0.89  0.05  0.00  0.00  0.00  0.00
  WSF200WS02003060        1.00   0.00  0.05  0.00  0.51  0.45  0.00  0.00  0.24  0.00
  1                       1.00   0.00  0.00  0.00  0.00  1.00  0.00  0.00  0.34  0.00
  2                       1.00   0.51  0.00  0.00  0.00  0.49  0.00  0.00  0.09  0.00
  3                       1.00   0.05  0.00  0.00  0.00  0.95  0.00  0.00  0.17  0.00
  4                       1.00   1.00  0.00  0.00  0.00  0.00  0.00  0.00  0.00  0.00
  
  
  *************************
  Conduit Surcharge Summary
  *************************
  
  ----------------------------------------------------------------------------
                                                           Hours        Hours 
                         --------- Hours Full --------   Above Full   Capacity
  Conduit                Both Ends  Upstream  Dnstream   Normal Flow   Limited
  ----------------------------------------------------------------------------
  WS02006229WS02006228        2.94      3.26      2.94      5.28         2.94
  WS02006256WS02006235        6.32      6.33      7.21      2.90         0.01
  WS02006253WS02006251        0.07      0.07      0.10      0.01         0.01
  WS02006252WS02006251        1.49      1.49      2.68      2.37         0.01
  WS02006251WS02006249        0.02      0.08      0.02      1.68         0.02
  WS02006249WS02006248        0.01      0.01      0.02      4.76         0.01
  WS02006248WS02006247        0.03      0.03      0.16      0.01         0.01
  WS02006247WS02006245        0.17      0.18      0.17      5.24         0.14
  WS02006245WS02006243        0.19      0.19      0.64      0.01         0.01
  WS02006243WS02006242        0.80      0.80      2.37      0.01         0.01
  WS02006242WS02006240        1.48      1.48      2.80      2.50         0.01
  WS02006240WS02006239        1.50      1.50      1.52      0.03         0.01
  WS02006239WS02006238        2.68      2.68      2.83      0.03         0.03
  WS02006238WS02006235        2.67      2.67      3.13      0.01         0.02
  WS02006235WS02006234        1.50      1.50      2.41      6.34         0.04
  WS02006234WS02006232        1.55      1.55      3.25      0.01         0.01
  WS02006232WS02006231        1.23      1.23      3.25      0.01         0.01
  WS02006231WS02006230        0.80      0.80      1.35      6.34         0.01
  WS02006230WS02006229        4.18      5.16      4.18      6.43         4.18
  WS02006228WS02006109        3.11      3.72      3.11      5.75         3.10
  WS02006116WS02004401        0.51      0.51      0.52      0.45         0.44
  WS02006115WS02006116        0.36      0.36      0.37      0.25         0.24
  WS02006112WS02006115        0.33      0.33      1.58      0.01         0.01
  WS02006111WS02006112        0.01      0.01      5.37      0.01         0.01
  WS02006110WS02006113        0.01      0.01      3.46      0.01         0.01
  WS02006109WS02006110        1.48      1.48      3.72      1.49         0.01
  WS02004411WS02004412        0.01      0.01      0.01      0.50         0.01
  WS02004401WS02004402        0.52      0.52      0.56      0.01         0.03
  WS02004410WS02004411        0.01      0.01      0.01      0.43         0.01
  WS02004409WS02004410        0.01      0.01      0.01      0.28         0.01
  WS02004406WS02004407        0.01      0.01      0.72      0.01         0.01
  WS02004405WS02004406        0.72      0.78      0.72      1.53         0.72
  WS02004404WS02004405        0.78      0.86      0.78      6.25         0.78
  WS02004403WS02004404        0.57      0.57      0.86      0.01         0.01
  WS02004402WS02004403        0.56      0.56      0.57      0.51         0.50
  WS02003072WS02003073        0.01      0.01      0.01      6.02         0.01
  HS02004876HS02004881        0.01      0.01      0.01      0.49         0.01
  HS02004785HS02004788        0.01      0.01      0.01      0.35         0.01
  HS02004480HS02004478        0.01      0.01      0.01      0.79         0.01
  YS02001759YS02001757        6.09      6.09      6.12      0.01         0.01
  YS02001762YS02001759        6.09      6.09      6.09      0.01         0.01
  YS02001765YS02001762        6.08      6.08      6.09      0.01         0.01
  YS02001770YS02001767        6.07      6.07      6.07      0.43         0.86
  YS02001774YS02001770        6.07      6.07      6.08      0.01         0.01
  YS02001779YS02001774        6.04      6.04      6.08      0.01         0.01
  YS02001649YS02001757        6.08      6.08      6.12      0.01         0.01
  YS02001767YS02001765        6.07      6.07      6.08      0.01         0.01
  YS02006561YS02001783        1.59      1.59      2.14      0.01         0.01
  YS02001783YS02001784        2.13      2.14      2.17      2.03         1.92
  YS02001784YS02001785        2.08      2.17      2.08      2.74         2.08
  YS02001788YS02001790        1.95      1.95      2.48      0.01         0.01
  YS02001790YS02001791        2.48      2.48      2.55      1.53         1.37
  YS02001791YS02001793        2.55      2.55      2.80      0.01         0.01
  YS02001910YS02001907        1.94      1.94      2.25      0.01         0.01
  YS02001786YS02001788        1.95      2.08      1.95      2.40         1.94
  YS02001915YS02001910        1.75      1.75      1.94      0.01         0.01
  YS02001918YS02001915        1.50      1.50      1.75      0.01         0.01
  YS02001923YS02001920        1.34      1.34      1.54      0.01         0.01
  YS02001926YS02001923        0.01      0.01      0.01      0.01         0.01
  YS02001929YS02001926        0.01      0.01      0.01      0.01         0.01
  YS02001920YS02001918        1.50      1.50      1.54      0.01         0.01
  YS02001629YS02163301        6.06      6.06      6.07      0.01         0.01
  YS02001619YS02001622        6.02      6.02      6.02      0.01         0.01
  YS02001622YS02001625        6.02      6.02      6.05      0.01         0.01
  YS02001625YS02001629        6.02      6.02      6.05      0.01         0.01
  YS02163301YS02001633        6.07      6.07      6.08      0.01         0.01
  YS02163601YS02164001        6.08      6.08      6.09      0.01         0.01
  YS02164001YS02001641        6.08      6.08      6.08      0.01         0.02
  YS02001641YS02001644        6.08      6.08      6.08      2.21         2.07
  YS02001647YS02001649        6.05      6.05      6.08      0.01         0.01
  YS02006553YS02006556        2.11      2.11      2.29      0.01         0.01
  YS02006556YS02006558        2.18      2.18      2.37      0.01         0.01
  YSB6556YSB1171              0.01      0.01      0.14      0.01         0.01
  YS02001907YS02006553        2.76      2.76      2.95      0.01         0.01
  YS02006558YS02006561        1.78      2.09      1.78      2.63         1.78
  YS02001633YS02163601        6.08      6.08      6.09      0.01         0.01
  YS02001644YS02001647        6.05      6.05      6.08      0.01         0.01
  YS02001745YS02001748        0.01      0.01      5.99      0.01         0.01
  YS02001748YS02001751        6.00      6.00      6.02      0.01         0.01
  YS02001751YS02001754        6.02      6.02      6.05      0.01         0.01
  YS02001754YS02001757        6.05      6.05      6.12      0.01         0.01
  YS02001882YS02001884        1.75      1.75      1.79      0.01         0.01
  YS02001884YS02001887        1.84      1.84      1.87      0.01         0.01
  YS02001890YS02001895        1.73      1.73      1.96      0.01         0.01
  YS02001895YS02001898        1.71      1.71      1.73      0.01         0.01
  YS02001898YS02001901        1.74      1.74      1.83      0.01         0.01
  YS02001901YS02001904        1.81      1.81      1.83      0.01         0.01
  YS02001904YS02001907        1.81      1.81      2.32      0.01         0.01
  YS02001887YS02001890        1.90      1.90      1.92      0.20         0.01
  YS02001652YS02001649        6.06      6.06      6.08      0.01         0.01
  YS02001655YS02001652        6.02      6.02      6.05      0.01         0.01
  YS02001658YS02001655        5.99      5.99      6.02      0.01         0.01
  YS02001661YS02001658        0.30      0.30      5.99      0.01         0.01
  YS02001664YS02001661        0.01      0.01      1.55      0.01         0.01
  YS02001793JiankangQianchi        2.72      2.72      3.80      0.01         0.01
  YS02001757CaochengTiaoxuchi        5.60      5.60      6.12      0.01         0.01
  
  
  ***************
  Pumping Summary
  ***************
  
  ---------------------------------------------------------------------------------------------------------
                                                  Min       Avg       Max     Total     Power    % Time Off
                        Percent   Number of      Flow      Flow      Flow    Volume     Usage    Pump Curve
  Pump                 Utilized   Start-Ups       LPS       LPS       LPS  10^6 ltr     Kw-hr    Low   High
  ---------------------------------------------------------------------------------------------------------
  CC-Pump-1               72.89           5      0.00    155.10    200.00     3.182      3.55    0.0    5.6
  CC-Pump-2               55.86           8      0.00    131.04    200.00     2.102      2.92    0.0    7.3
  JK-Pump-1               87.22           5      0.00    203.54    300.00     4.346     47.96    0.0    0.0
  JK-Pump-2               80.85           7      0.00    176.22    300.00     3.274     42.24    0.0    0.0
  XR-Pump-1               87.21           8      0.00     78.09     95.00     1.881     12.22    0.0    0.0
  XR-Pump-2               80.83          10      0.00     64.10     95.00     1.425      9.33    0.0    0.0
  XR-Pump-3               80.85           9      0.00     67.61     95.00     1.625     12.03    0.0    0.0
  XR-Pump-4               74.47           9      0.00     66.99     95.00     1.396      9.80    0.0    0.0
  

  Analysis begun on:  Wed Dec 22 19:50:55 2021
  Analysis ended on:  Wed Dec 22 19:51:00 2021
  Total elapsed time: 00:00:05