
  EPA STORM WATER MANAGEMENT MODEL - VERSION 5.1 (Build 5.3.0.dev0)
  --------------------------------------------------------------

  WARNING 04: minimum elevation drop used for Conduit WS02004404WS02004405
  WARNING 03: negative offset ignored for Link YS02001904YS02001907
  
  *********************************************************
  NOTE: The summary statistics displayed in this report are
  based on results found at every computational time step,  
  not just on results from each reporting time step.
  *********************************************************
  
  ****************
  Analysis Options
  ****************
  Flow Units ............... LPS
  Process Models:
    Rainfall/Runoff ........ YES
    RDII ................... NO
    Snowmelt ............... NO
    Groundwater ............ NO
    Flow Routing ........... YES
    Ponding Allowed ........ NO
    Water Quality .......... NO
  Infiltration Method ...... HORTON
  Flow Routing Method ...... DYNWAVE
  Surcharge Method ......... EXTRAN
  Starting Date ............ 08/28/2015 08:00:00
  Ending Date .............. 08/28/2015 15:50:00
  Antecedent Dry Days ...... 8.0
  Report Time Step ......... 00:01:00
  Wet Time Step ............ 00:01:00
  Dry Time Step ............ 00:01:00
  Routing Time Step ........ 5.00 sec
  Variable Time Step ....... YES
  Maximum Trials ........... 8
  Number of Threads ........ 4
  Head Tolerance ........... 0.001500 m
  
  
  **************************        Volume         Depth
  Runoff Quantity Continuity     hectare-m            mm
  **************************     ---------       -------
  Total Precipitation ......         4.854        10.627
  Evaporation Loss .........         0.000         0.000
  Infiltration Loss ........         1.246         2.727
  Surface Runoff ...........         2.607         5.707
  Final Storage ............         1.002         2.194
  Continuity Error (%) .....        -0.015
  
  
  **************************        Volume        Volume
  Flow Routing Continuity        hectare-m      10^6 ltr
  **************************     ---------     ---------
  Dry Weather Inflow .......         0.616         6.165
  Wet Weather Inflow .......         2.606        26.058
  Groundwater Inflow .......         0.000         0.000
  RDII Inflow ..............         0.000         0.000
  External Inflow ..........         0.102         1.024
  External Outflow .........         1.883        18.831
  Flooding Loss ............         1.012        10.122
  Evaporation Loss .........         0.000         0.000
  Exfiltration Loss ........         0.000         0.000
  Initial Stored Volume ....         0.076         0.761
  Final Stored Volume ......         0.587         5.870
  Continuity Error (%) .....        -2.399
  
  
  *************************
  Highest Continuity Errors
  *************************
  Node HS02004842 (17.68%)
  Node YS02001884 (11.58%)
  Node JK-storage (-10.15%)
  Node YSB1171 (3.62%)
  Node YS02001774 (3.61%)
  
  
  ***************************
  Time-Step Critical Elements
  ***************************
  Link 3 (51.73%)
  Link WS02006252WS02006251 (36.24%)
  Link WS02006238WS02006235 (3.39%)
  Link WS02006280WS02006229 (2.16%)
  Link 2 (1.65%)
  
  
  ********************************
  Highest Flow Instability Indexes
  ********************************
  Link WS02006113WS02006111 (42)
  Link YS02001619YS02001622 (37)
  Link YS02163301YS02001633 (36)
  Link YS02001629YS02163301 (35)
  Link YS02163601YS02164001 (35)
  
  
  *************************
  Routing Time Step Summary
  *************************
  Minimum Time Step           :     0.23 sec
  Average Time Step           :     0.82 sec
  Maximum Time Step           :     5.00 sec
  Percent in Steady State     :    -0.00
  Average Iterations per Step :     4.62
  Percent Not Converging      :    24.07
  
  
  ***************************
  Subcatchment Runoff Summary
  ***************************
  
  ------------------------------------------------------------------------------------------------------------------------------
                            Total      Total      Total      Total     Imperv       Perv      Total       Total     Peak  Runoff
                           Precip      Runon       Evap      Infil     Runoff     Runoff     Runoff      Runoff   Runoff   Coeff
  Subcatchment                 mm         mm         mm         mm         mm         mm         mm    10^6 ltr      LPS
  ------------------------------------------------------------------------------------------------------------------------------
  sub0                      10.63       0.00       0.00       0.74       8.62       0.00       8.62        0.01     1.33   0.811
  sub1                      10.63       0.00       0.00       1.17       8.20       0.00       8.20        0.05     9.09   0.772
  sub2                      10.63       0.00       0.00       3.93       5.79       0.00       5.79        0.05     8.42   0.544
  sub3                      10.63       0.00       0.00       3.93       5.75       0.00       5.75        0.13    19.27   0.541
  sub4                      10.63       0.00       0.00       1.17       8.05       0.00       8.05        0.17    23.93   0.757
  sub5                      10.63       0.00       0.00       0.74       8.57       0.00       8.57        0.10    16.17   0.806
  sub7                      10.63       0.00       0.00       0.96       8.41       0.00       8.41        0.03     5.13   0.792
  sub8                      10.63       0.00       0.00       0.96       8.41       0.00       8.41        0.05     9.46   0.791
  sub9                      10.63       0.00       0.00       0.96       8.40       0.00       8.40        0.04     7.08   0.791
  sub10                     10.63       0.00       0.00       0.85       8.48       0.00       8.48        0.09    15.87   0.798
  sub11                     10.63       0.00       0.00       0.85       8.50       0.00       8.50        0.10    17.56   0.800
  sub12                     10.63       0.00       0.00       1.38       8.06       0.00       8.06        0.07    13.15   0.758
  sub14                     10.63       0.00       0.00       0.96       8.40       0.00       8.40        0.08    13.93   0.791
  sub15                     10.63       0.00       0.00       3.19       6.46       0.00       6.46        0.11    19.14   0.608
  sub16                     10.63       0.00       0.00       3.51       6.20       0.00       6.20        0.06    12.01   0.584
  sub17                     10.63       0.00       0.00       3.40       6.29       0.00       6.29        0.05     9.91   0.592
  sub22                     10.63       0.00       0.00       4.57       5.27       0.00       5.27        0.33    59.53   0.496
  sub23                     10.63       0.00       0.00       3.93       5.82       0.00       5.82        0.28    50.05   0.548
  sub60                     10.63       0.00       0.00       1.28       6.54       0.00       6.54        1.98   196.13   0.615
  sub61                     10.63       0.00       0.00       1.81       6.69       0.00       6.69        2.06   224.83   0.630
  sub62                     10.63       0.00       0.00       0.85       7.26       0.00       7.26        2.23   236.97   0.684
  sub63                     10.63       0.00       0.00       3.08       5.87       0.00       5.87        1.78   199.96   0.553
  sub64                     10.63       0.00       0.00       1.59       6.27       0.00       6.27        1.91   187.22   0.590
  sub65                     10.63       0.00       0.00       1.38       6.37       0.00       6.37        1.96   190.91   0.599
  sub66                     10.63       0.00       0.00       3.08       5.39       0.00       5.39        1.65   167.73   0.507
  sub67                     10.63       0.00       0.00       0.85       7.71       0.00       7.71        2.38   272.25   0.726
  sub68                     10.63       0.00       0.00       1.49       7.05       0.00       7.05        2.17   241.26   0.664
  sub69                     10.63       0.00       0.00       1.59       7.35       0.00       7.35        1.72   204.41   0.692
  sub70                     10.63       7.50       0.00       6.16       9.71       0.01       9.71        2.22   229.02   0.536
  sub71                     10.63       0.00       0.00       0.85       7.06       0.00       7.06        1.67   170.86   0.664
  sub72                     10.63       0.00       0.00       0.74       5.52       0.00       5.52        1.12    91.59   0.519
  sub73                     10.63       9.45       0.00       6.83      10.48       0.00      10.49        2.46   215.21   0.522
  sub74                     10.63       0.00       0.00       7.97       2.19       0.00       2.19        0.88   108.49   0.206
  
  
  ******************
  Node Depth Summary
  ******************
  
  ---------------------------------------------------------------------------------
                                 Average  Maximum  Maximum  Time of Max    Reported
                                   Depth    Depth      HGL   Occurrence   Max Depth
  Node                 Type       Meters   Meters   Meters  days hr:min      Meters
  ---------------------------------------------------------------------------------
  WS02001211           JUNCTION     0.64     0.78     5.62     0  07:50        0.78
  WS02001212           JUNCTION     0.36     0.49     5.55     0  07:50        0.49
  WS02001213           JUNCTION     0.60     0.73     5.49     0  07:50        0.73
  WS02003069           JUNCTION     0.43     0.53     5.12     0  07:50        0.53
  WS02003072           JUNCTION     0.50     0.59     4.96     0  07:50        0.59
  WS02003073           JUNCTION     0.30     0.36     4.43     0  07:50        0.36
  WS02003060           JUNCTION     0.38     0.47     5.40     0  07:50        0.47
  WS02003066           JUNCTION     0.24     0.30     5.85     0  02:12        0.30
  WS02003059           JUNCTION     0.67     0.78     5.47     0  07:50        0.78
  WS02003067           JUNCTION     0.58     0.70     6.02     0  02:11        0.70
  WS02004401           JUNCTION     0.68     0.84     6.84     0  02:08        0.84
  WS02004402           JUNCTION     0.71     0.87     6.83     0  02:08        0.87
  WS02004403           JUNCTION     0.73     0.89     6.82     0  02:08        0.89
  WS02004404           JUNCTION     0.80     0.96     6.81     0  02:08        0.96
  WS02004406           JUNCTION     0.81     0.95     6.78     0  02:08        0.95
  WS02004409           JUNCTION     0.50     0.66     6.43     0  02:11        0.66
  WS02004410           JUNCTION     0.52     0.67     6.39     0  02:10        0.67
  WS02004411           JUNCTION     0.53     0.68     6.36     0  02:11        0.68
  WS02004412           JUNCTION     0.55     0.69     6.33     0  02:11        0.69
  WS02004413           JUNCTION     0.71     0.85     6.32     0  02:11        0.85
  WS02004405           JUNCTION     0.80     0.95     6.80     0  02:08        0.95
  WS02006109           JUNCTION     0.76     0.96     7.58     0  02:05        0.96
  WS02006110           JUNCTION     0.76     0.91     7.50     0  02:05        0.91
  WS02006111           JUNCTION     0.22     0.28     6.99     0  02:06        0.28
  WS02006112           JUNCTION     0.85     1.06     6.94     0  02:08        1.05
  WS02006113           JUNCTION     0.35     0.45     7.34     0  02:05        0.45
  WS02006115           JUNCTION     0.57     0.75     6.88     0  02:08        0.74
  WS02006116           JUNCTION     0.65     0.82     6.86     0  02:08        0.82
  WS02006230           JUNCTION     0.73     0.98     7.73     0  02:04        0.98
  WS02006231           JUNCTION     0.47     0.64     7.76     0  02:04        0.64
  WS02006232           JUNCTION     0.61     0.76     7.79     0  02:04        0.76
  WS02006234           JUNCTION     0.52     0.70     7.86     0  04:42        0.70
  WS02006235           JUNCTION     0.55     0.74     7.91     0  04:42        0.74
  WS02006238           JUNCTION     0.58     0.77     7.91     0  04:42        0.77
  WS02006240           JUNCTION     0.47     0.70     7.99     0  04:41        0.70
  WS02006242           JUNCTION     0.52     0.77     8.04     0  04:42        0.77
  WS02006243           JUNCTION     0.40     0.65     8.07     0  04:42        0.65
  WS02006245           JUNCTION     0.38     0.62     8.11     0  07:42        0.62
  WS02006247           JUNCTION     0.39     0.64     8.14     0  07:42        0.64
  WS02006248           JUNCTION     0.34     0.58     8.16     0  07:43        0.58
  WS02006249           JUNCTION     0.38     0.60     8.19     0  07:43        0.60
  WS02006239           JUNCTION     0.53     0.74     7.95     0  04:42        0.74
  WS02006251           JUNCTION     0.36     0.62     8.29     0  07:43        0.62
  WS02006252           JUNCTION     0.32     0.59     8.83     0  06:31        0.58
  WS02006253           JUNCTION     0.39     0.64     8.29     0  07:43        0.64
  WS02006256           JUNCTION     1.06     1.21     8.14     0  04:42        1.21
  WS02004138           JUNCTION     0.14     0.19     7.44     0  07:42        0.19
  WS02004407           JUNCTION     0.23     0.29     6.61     0  02:08        0.29
  WS02006228           JUNCTION     0.76     1.00     7.65     0  02:04        1.00
  WS02006229           JUNCTION     0.73     0.99     7.69     0  02:04        0.99
  WS02006280           JUNCTION     0.07     0.16     8.43     0  01:50        0.16
  WS02006284           JUNCTION     0.37     0.50     8.90     0  01:50        0.50
  WS02006287           JUNCTION     0.10     0.23     9.19     0  01:50        0.23
  WSF200               JUNCTION     0.22     0.30     5.54     0  02:12        0.30
  HS02004901           JUNCTION     0.12     0.24    10.06     0  01:47        0.24
  HS02004881           JUNCTION     0.01     0.03     9.06     0  01:50        0.03
  HS02004876           JUNCTION     0.04     0.11     9.14     0  01:47        0.11
  HS02004870           JUNCTION     0.01     0.05     9.33     0  01:50        0.05
  HS02004862           JUNCTION     0.02     0.05     9.44     0  01:51        0.05
  HS02004856           JUNCTION     0.08     0.11     9.54     0  01:51        0.11
  HS02004852           JUNCTION     0.01     0.03     9.54     0  01:52        0.03
  HS02004848           JUNCTION     0.01     0.03     9.63     0  01:51        0.03
  HS02004842           JUNCTION     0.34     0.36     9.63     0  01:51        0.36
  HS02004837           JUNCTION     0.03     0.05     9.63     0  01:51        0.05
  HS02004830           JUNCTION     0.04     0.07     9.54     0  01:51        0.07
  HS02004824           JUNCTION     0.02     0.05     9.45     0  02:16        0.05
  HS02004817           JUNCTION     0.44     0.54     9.39     0  01:51        0.54
  HS02004807           JUNCTION     0.12     0.22     9.39     0  01:51        0.22
  HS02004802           JUNCTION     0.16     0.25     9.38     0  01:51        0.25
  HS02004799           JUNCTION     0.12     0.28     9.49     0  01:48        0.28
  HS02004792           JUNCTION     0.03     0.11     9.63     0  01:47        0.11
  HS02004788           JUNCTION     0.02     0.08     9.98     0  01:48        0.08
  HS02004785           JUNCTION     0.05     0.14    10.04     0  01:48        0.14
  HS02004777           JUNCTION     0.15     0.26    10.06     0  01:47        0.26
  HS02004770           JUNCTION     0.12     0.23    10.06     0  01:47        0.23
  HS02004480           JUNCTION     0.08     0.21     9.46     0  01:48        0.21
  HS02004479           JUNCTION     0.12     0.25     9.46     0  01:48        0.25
  HS02004478           JUNCTION     0.06     0.14     9.37     0  01:49        0.14
  YS02001745           JUNCTION     0.69     0.88     8.40     0  03:09        0.88
  YS02001748           JUNCTION     1.09     1.42     8.49     0  02:37        1.32
  YS02001751           JUNCTION     1.27     1.78     8.66     0  02:16        1.52
  YS02001754           JUNCTION     1.53     1.82     8.43     0  02:16        1.81
  YS02001762           JUNCTION     1.73     2.03     8.43     0  03:00        2.02
  YS02001765           JUNCTION     1.68     1.98     8.43     0  03:00        1.96
  YS02001767           JUNCTION     1.65     1.93     8.42     0  02:59        1.92
  YS02001770           JUNCTION     1.64     1.95     8.44     0  02:19        1.90
  YS02001774           JUNCTION     1.71     2.01     8.43     0  02:19        1.96
  YS02001779           JUNCTION     1.46     1.68     8.37     0  02:19        1.68
  YS02001882           JUNCTION     0.41     0.84     7.56     0  03:02        0.84
  YS02001884           JUNCTION     0.51     0.94     7.56     0  03:02        0.94
  YS02001759           JUNCTION     1.76     2.07     8.43     0  03:01        2.06
  YS02001887           JUNCTION     0.58     1.02     7.56     0  03:03        1.02
  YS02001890           JUNCTION     0.62     1.05     7.56     0  03:03        1.05
  YS02001898           JUNCTION     0.38     0.81     7.55     0  03:03        0.81
  YS02001901           JUNCTION     0.50     0.94     7.55     0  03:02        0.94
  YS02001904           JUNCTION     0.48     0.91     7.54     0  03:03        0.91
  YS02001907           JUNCTION     0.81     1.26     7.55     0  03:02        1.25
  YS02001910           JUNCTION     0.60     1.04     7.55     0  03:02        1.04
  YS02001915           JUNCTION     0.40     0.83     7.55     0  03:03        0.83
  YS02001918           JUNCTION     0.15     0.48     7.55     0  03:02        0.48
  YS02001619           JUNCTION     1.24     1.61     8.54     0  02:27        1.46
  YS02001629           JUNCTION     1.59     1.85     8.40     0  02:29        1.84
  YS02001641           JUNCTION     1.70     1.96     8.40     0  02:35        1.93
  YS02001644           JUNCTION     1.70     1.92     8.35     0  02:35        1.92
  YS02001652           JUNCTION     1.54     2.14     8.73     0  02:26        1.91
  YS02001655           JUNCTION     1.30     2.20     9.05     0  02:18        1.76
  YS02001920           JUNCTION     0.25     0.55     7.56     0  03:03        0.54
  YS02001923           JUNCTION     0.10     0.29     7.55     0  03:03        0.29
  YS02001926           JUNCTION     0.20     0.26     7.71     0  03:01        0.26
  YS02001929           JUNCTION     0.10     0.14     7.84     0  03:01        0.14
  YS02001658           JUNCTION     1.03     2.30     9.44     0  02:25        1.59
  YS02001661           JUNCTION     0.79     2.21     9.61     0  03:27        1.52
  YS02001664           JUNCTION     0.34     0.57     8.50     0  02:45        0.57
  YS02001622           JUNCTION     1.26     1.62     8.52     0  02:29        1.49
  YS02001633           JUNCTION     1.69     1.97     8.43     0  02:35        1.93
  YS02001649           JUNCTION     1.74     2.05     8.44     0  02:25        2.05
  YS02001757           JUNCTION     1.86     2.17     8.43     0  03:00        2.16
  YS02001895           JUNCTION     0.38     0.81     7.55     0  03:03        0.81
  YS02001625           JUNCTION     1.55     1.78     8.38     0  02:29        1.78
  YS02163301           JUNCTION     1.63     1.91     8.43     0  02:31        1.87
  YS02163601           JUNCTION     1.74     2.03     8.43     0  02:35        1.98
  YS02164001           JUNCTION     1.68     1.97     8.42     0  02:35        1.91
  YS02001647           JUNCTION     1.53     1.80     8.41     0  02:46        1.79
  YSB1154              JUNCTION     0.26     0.40     9.46     0  01:48        0.40
  YSB6556              JUNCTION     0.15     0.29     9.46     0  01:49        0.29
  YSB1174              JUNCTION     0.21     0.35     9.46     0  01:49        0.35
  YSB1171              JUNCTION     0.41     0.55     9.46     0  01:48        0.55
  YS02006553           JUNCTION     0.82     1.26     7.54     0  03:03        1.25
  YS02006561           JUNCTION     0.22     0.56     7.22     0  03:02        0.56
  YS02006556           JUNCTION     0.79     1.21     7.52     0  03:03        1.21
  YS02006558           JUNCTION     0.83     1.25     7.52     0  03:03        1.24
  YS02001783           JUNCTION     0.42     1.49     7.63     0  02:20        1.07
  YS02001784           JUNCTION     0.45     1.63     7.69     0  02:20        1.07
  YS02001786           JUNCTION     0.40     1.80     7.83     0  02:20        1.00
  YS02001788           JUNCTION     0.33     1.75     7.73     0  02:20        0.96
  YS02001790           JUNCTION     0.43     1.96     7.60     0  02:20        1.19
  YS02001791           JUNCTION     0.39     1.74     7.21     0  02:20        1.24
  YS02001793           JUNCTION     0.57     3.12     7.95     0  02:18        1.80
  WS02004139           JUNCTION     0.57     0.73     5.64     0  07:50        0.73
  WSC                  OUTFALL      0.30     0.36     1.03     0  07:50        0.36
  3                    OUTFALL      0.11     0.20     6.20     0  04:42        0.20
  4                    OUTFALL      0.01     0.10     7.10     0  07:43        0.10
  5                    OUTFALL      0.00     0.00     5.00     0  00:00        0.00
  JK-storage           STORAGE      2.52     5.80     6.60     0  02:19        5.80
  CC-storage           STORAGE      1.10     1.40     8.40     0  03:07        1.40
  XR-storage           STORAGE      7.34     7.72     5.72     0  02:10        7.72
  
  
  *******************
  Node Inflow Summary
  *******************
  
  -------------------------------------------------------------------------------------------------
                                  Maximum  Maximum                  Lateral       Total        Flow
                                  Lateral    Total  Time of Max      Inflow      Inflow     Balance
                                   Inflow   Inflow   Occurrence      Volume      Volume       Error
  Node                 Type           LPS      LPS  days hr:min    10^6 ltr    10^6 ltr     Percent
  -------------------------------------------------------------------------------------------------
  WS02001211           JUNCTION      7.35   387.11     0  07:50       0.207        6.24       0.674
  WS02001212           JUNCTION      0.00   386.49     0  07:50           0        6.19       0.391
  WS02001213           JUNCTION      0.00   386.08     0  07:50           0        6.17       0.457
  WS02003069           JUNCTION      0.32   803.23     0  07:50     0.00902        14.3       0.263
  WS02003072           JUNCTION      0.00   802.37     0  07:50           0        14.3       0.309
  WS02003073           JUNCTION      1.82   803.19     0  07:50      0.0514        14.3       0.358
  WS02003060           JUNCTION     16.53   803.71     0  07:50       0.466        14.4       0.248
  WS02003066           JUNCTION      0.00   525.58     0  02:12           0         7.8       0.066
  WS02003059           JUNCTION      0.00   385.66     0  07:50           0        6.14       0.690
  WS02003067           JUNCTION      0.00   525.49     0  02:11           0        7.81       0.133
  WS02004401           JUNCTION      0.00   531.49     0  02:07           0        8.08       0.300
  WS02004402           JUNCTION      0.00   530.48     0  02:07           0        8.05       0.279
  WS02004403           JUNCTION      0.00   530.08     0  02:07           0        8.03       0.251
  WS02004404           JUNCTION      0.16   529.78     0  02:08     0.00457        8.01       0.186
  WS02004406           JUNCTION      0.00   529.97     0  02:09           0        7.98       0.452
  WS02004409           JUNCTION      0.00   529.51     0  02:08           0        7.93       0.248
  WS02004410           JUNCTION      0.00   527.54     0  02:09           0        7.91       0.276
  WS02004411           JUNCTION      0.00   526.55     0  02:10           0        7.89       0.279
  WS02004412           JUNCTION      0.00   525.91     0  02:11           0        7.87       0.295
  WS02004413           JUNCTION      0.00   525.85     0  02:11           0        7.85       0.430
  WS02004405           JUNCTION      0.04   529.83     0  02:08     0.00107           8       0.278
  WS02006109           JUNCTION      1.23   526.10     0  02:05      0.0347        8.16       0.273
  WS02006110           JUNCTION      0.00   526.10     0  02:05           0        8.14       0.279
  WS02006111           JUNCTION      0.00   546.59     0  02:05           0         8.1       0.065
  WS02006112           JUNCTION      9.91   539.44     0  02:06       0.054        8.15       0.390
  WS02006113           JUNCTION      0.00   526.48     0  02:05           0        8.12       0.142
  WS02006115           JUNCTION      0.00   544.38     0  02:08           0        8.12       0.305
  WS02006116           JUNCTION      0.00   533.92     0  02:06           0         8.1       0.263
  WS02006230           JUNCTION     10.28   400.77     0  04:42        0.29        6.52       0.198
  WS02006231           JUNCTION      0.00   391.70     0  04:42           0        6.25       0.232
  WS02006232           JUNCTION      0.00   391.82     0  04:41           0        6.26       0.274
  WS02006234           JUNCTION      0.00   393.92     0  04:41           0        6.27       0.183
  WS02006235           JUNCTION      0.00   393.40     0  07:01           0        6.31       0.170
  WS02006238           JUNCTION      0.00   337.90     0  06:34           0        4.09       0.221
  WS02006240           JUNCTION      0.00   337.59     0  06:33           0         4.1       0.401
  WS02006242           JUNCTION      0.00   337.61     0  06:33           0        4.11       0.458
  WS02006243           JUNCTION      0.00   341.25     0  07:31           0         4.1       0.048
  WS02006245           JUNCTION      0.00   343.65     0  07:31           0        4.12       0.365
  WS02006247           JUNCTION      0.00   345.84     0  03:50           0        4.13       0.251
  WS02006248           JUNCTION      0.00   351.68     0  03:50           0        4.13       0.165
  WS02006249           JUNCTION      0.00   402.31     0  07:44           0        4.37       0.369
  WS02006239           JUNCTION      0.00   339.29     0  06:32           0        4.09       0.314
  WS02006251           JUNCTION      0.08   402.02     0  06:32     0.00217        4.41       0.316
  WS02006252           JUNCTION      0.00   400.00     0  06:30           0        4.08       0.013
  WS02006253           JUNCTION      1.33    51.15     0  01:50     0.00698       0.334       2.586
  WS02006256           JUNCTION      0.00   600.00     0  03:20           0         6.6       0.038
  WS02004138           JUNCTION      0.00   380.00     0  07:40           0        6.07       0.100
  WS02004407           JUNCTION      0.00   529.68     0  02:08           0        7.94       0.111
  WS02006228           JUNCTION      0.00   524.88     0  02:05           0        8.14       0.200
  WS02006229           JUNCTION      0.00   524.65     0  02:05           0        8.16       0.166
  WS02006280           JUNCTION      0.00   250.77     0  01:50           0        1.65       0.004
  WS02006284           JUNCTION      0.10   250.79     0  01:50      0.0027        1.65       0.062
  WS02006287           JUNCTION      0.00   250.70     0  01:50           0        1.65       0.044
  WSF200               JUNCTION      0.00   525.64     0  02:12           0         7.8       0.063
  HS02004901           JUNCTION     12.01    12.01     0  01:45      0.0649      0.0651       2.778
  HS02004881           JUNCTION      5.13    49.92     0  01:49      0.0283       0.303       0.071
  HS02004876           JUNCTION      9.09    44.88     0  01:50      0.0545       0.275       0.197
  HS02004870           JUNCTION      9.46    35.90     0  01:50      0.0537       0.221       0.049
  HS02004862           JUNCTION      8.62    26.77     0  01:51      0.0595       0.167       0.103
  HS02004856           JUNCTION      7.08    18.19     0  01:50      0.0404       0.109       1.342
  HS02004852           JUNCTION      0.00    11.37     0  01:51           0      0.0688       0.079
  HS02004848           JUNCTION     19.27    19.27     0  02:15       0.129       0.129       0.035
  HS02004842           JUNCTION      0.00     7.96     0  02:16           0      0.0736      21.475
  HS02004837           JUNCTION     22.22    28.76     0  01:50       0.273       0.333       0.244
  HS02004830           JUNCTION      0.15    28.90     0  01:51     0.00423       0.323       0.383
  HS02004824           JUNCTION     23.98    52.78     0  02:16       0.169       0.492       0.110
  HS02004817           JUNCTION      0.60    53.38     0  02:16      0.0169       0.508       3.394
  HS02004807           JUNCTION     17.56    68.44     0  02:16      0.0987        0.59       0.739
  HS02004802           JUNCTION      0.00    68.45     0  02:16           0       0.587       0.678
  HS02004799           JUNCTION     13.93   155.61     0  01:47      0.0799       0.915       0.288
  HS02004792           JUNCTION     59.81   141.74     0  01:47       0.341       0.835       0.048
  HS02004788           JUNCTION     20.81    82.40     0  01:48       0.158       0.496       0.078
  HS02004785           JUNCTION      0.15    61.69     0  01:47     0.00423       0.339       0.145
  HS02004777           JUNCTION      0.03    61.69     0  01:46    0.000846        0.34       1.552
  HS02004770           JUNCTION     50.05    61.90     0  01:46       0.278       0.341       0.915
  HS02004480           JUNCTION      0.00   184.53     0  01:48           0        1.08       0.105
  HS02004479           JUNCTION      0.00    29.01     0  01:50           0       0.176       0.418
  HS02004478           JUNCTION      0.00   250.67     0  01:49           0        1.65       0.021
  YS02001745           JUNCTION    196.14   294.27     0  02:33        1.98        1.99       0.413
  YS02001748           JUNCTION      0.04   451.90     0  02:33     0.00127        1.99       1.092
  YS02001751           JUNCTION      0.01   452.75     0  02:15     0.00031        1.96       1.154
  YS02001754           JUNCTION      0.26   225.75     0  02:16     0.00733        1.94       1.276
  YS02001762           JUNCTION      0.00   238.32     0  02:16           0        1.76       1.202
  YS02001765           JUNCTION      0.00   232.88     0  02:21           0        1.76       1.391
  YS02001767           JUNCTION      0.54   229.97     0  02:48      0.0151        1.78       2.037
  YS02001770           JUNCTION    237.12   351.45     0  03:12        2.24        2.36       1.334
  YS02001774           JUNCTION      0.00   352.03     0  03:13           0       0.695       3.747
  YS02001779           JUNCTION      0.01   352.43     0  03:13    0.000141       0.662       2.361
  YS02001882           JUNCTION      0.00    15.46     0  02:18           0      0.0148      16.278
  YS02001884           JUNCTION      0.00    22.67     0  02:22           0      0.0493      13.091
  YS02001759           JUNCTION    224.87   448.10     0  02:48        2.06        3.67       0.619
  YS02001887           JUNCTION    272.70   273.64     0  02:23        2.39        2.42       0.333
  YS02001890           JUNCTION      0.00   268.59     0  03:00           0        2.38       0.370
  YS02001898           JUNCTION      0.00   268.01     0  02:23           0        2.36       0.116
  YS02001901           JUNCTION      0.00   268.65     0  02:24           0        2.36       0.276
  YS02001904           JUNCTION      0.00   263.43     0  03:02           0        2.36       0.252
  YS02001907           JUNCTION      0.00   527.76     0  03:07           0        5.21       0.449
  YS02001910           JUNCTION      0.00   267.72     0  03:09           0        2.86       0.395
  YS02001915           JUNCTION    170.88   265.14     0  03:04        1.67        2.86       0.195
  YS02001918           JUNCTION      0.00   107.67     0  03:15           0         1.2       0.142
  YS02001619           JUNCTION    167.73   167.73     0  03:01        1.65        1.65       0.727
  YS02001629           JUNCTION      0.00   220.53     0  02:16           0        1.57       1.822
  YS02001641           JUNCTION      0.00   352.32     0  03:00           0        3.43       0.612
  YS02001644           JUNCTION    187.26  1005.89     0  03:09        1.91        7.19       0.364
  YS02001652           JUNCTION      0.00   261.32     0  02:24           0        1.74       1.354
  YS02001655           JUNCTION      0.15   410.67     0  02:18     0.00434        1.76       1.347
  YS02001920           JUNCTION      2.87   105.59     0  03:04      0.0809         1.2       0.228
  YS02001923           JUNCTION      0.04    91.49     0  03:01     0.00106        1.12       0.042
  YS02001926           JUNCTION      0.05    91.60     0  03:01     0.00147        1.12       0.282
  YS02001929           JUNCTION     91.59    91.59     0  03:01        1.12        1.12       0.041
  YS02001658           JUNCTION      0.00   604.31     0  02:24           0        1.82       1.133
  YS02001661           JUNCTION      0.00   598.05     0  02:44           0        2.46      -0.141
  YS02001664           JUNCTION    199.96   382.98     0  02:45        1.78        2.42       0.128
  YS02001622           JUNCTION      0.00   170.08     0  02:17           0        1.64       1.955
  YS02001633           JUNCTION    191.11   352.04     0  03:01        1.96        3.49       0.926
  YS02001649           JUNCTION      0.00   704.78     0  02:42           0        4.85       0.763
  YS02001757           JUNCTION      0.00  1299.41     0  02:42           0        8.44       1.100
  YS02001895           JUNCTION      0.00   271.06     0  02:23           0        2.37       0.201
  YS02001625           JUNCTION      0.00   221.11     0  02:16           0        1.61       2.478
  YS02163301           JUNCTION      0.00   185.82     0  02:19           0        1.55       1.558
  YS02163601           JUNCTION      0.11   352.09     0  03:00      0.0031        3.45       0.871
  YS02164001           JUNCTION      0.00   352.16     0  02:59           0        3.43       0.579
  YS02001647           JUNCTION      0.00   511.66     0  03:12           0        3.94       0.714
  YSB1154              JUNCTION     16.17    16.17     0  01:48       0.097      0.0978       1.500
  YSB6556              JUNCTION      0.00    16.24     0  01:49           0      0.0986       1.284
  YSB1174              JUNCTION     13.15    13.15     0  01:45      0.0704      0.0709       1.844
  YSB1171              JUNCTION      0.00    29.31     0  01:48           0       0.175       3.754
  YS02006553           JUNCTION      0.00   528.19     0  03:07           0         5.2       0.286
  YS02006561           JUNCTION      0.00   753.55     0  03:04           0        7.33       0.008
  YS02006556           JUNCTION      0.00   527.65     0  03:06           0         5.2       0.212
  YS02006558           JUNCTION    242.14   754.43     0  03:03        2.19        7.37       0.069
  YS02001783           JUNCTION      0.00   753.32     0  03:03           0        7.33       0.024
  YS02001784           JUNCTION      1.06   754.56     0  03:03      0.0299        7.36       0.047
  YS02001786           JUNCTION      0.06   754.52     0  03:04     0.00159        7.36       0.042
  YS02001788           JUNCTION      0.07   754.47     0  03:04       0.002        7.36       0.025
  YS02001790           JUNCTION      0.15   754.65     0  03:03     0.00437        7.36       0.029
  YS02001791           JUNCTION      0.00   754.80     0  03:03           0        7.36       0.004
  YS02001793           JUNCTION      0.00   754.87     0  03:04           0        7.36      -0.015
  WS02004139           JUNCTION      0.32   380.32     0  07:42     0.00905        6.07       0.740
  WSC                  OUTFALL       0.00   800.71     0  07:50           0        14.3       0.000
  3                    OUTFALL       0.00   504.00     0  04:42           0        4.36       0.000
  4                    OUTFALL       0.00    93.75     0  07:43           0       0.222       0.000
  5                    OUTFALL       0.00     0.00     0  00:00           0           0       0.000 ltr
  JK-storage           STORAGE       0.00   863.97     0  02:17           0        7.51      -9.217
  CC-storage           STORAGE       0.00  1299.16     0  02:42           0        7.24       0.796
  XR-storage           STORAGE     519.52   519.52     0  03:01        8.98        9.58      -0.002
  
  
  **********************
  Node Surcharge Summary
  **********************
  
  Surcharging occurs when water rises above the top of the highest conduit.
  ---------------------------------------------------------------------
                                               Max. Height   Min. Depth
                                   Hours       Above Crown    Below Rim
  Node                 Type      Surcharged         Meters       Meters
  ---------------------------------------------------------------------
  WS02006109           JUNCTION        1.71          0.141        1.679
  WS02006110           JUNCTION        0.06          0.005        1.845
  WS02006112           JUNCTION        0.42          0.057        1.623
  WS02006232           JUNCTION        1.29          0.056        1.424
  WS02006235           JUNCTION        0.40          0.031        1.259
  WS02006238           JUNCTION        0.79          0.050        1.380
  WS02006242           JUNCTION        0.46          0.038        0.782
  WS02006239           JUNCTION        0.03          0.005        1.285
  WS02006252           JUNCTION        1.58          0.193        0.907
  WS02006228           JUNCTION        1.59          0.166        2.034
  YS02001748           JUNCTION        4.95          0.335        0.855
  YS02001751           JUNCTION        5.47          0.782        0.418
  YS02001754           JUNCTION        5.72          0.770        0.380
  YS02001762           JUNCTION        5.94          1.028        0.122
  YS02001765           JUNCTION        5.92          0.976        0.124
  YS02001767           JUNCTION        5.90          0.929        0.101
  YS02001770           JUNCTION        5.88          0.920        0.000
  YS02001774           JUNCTION        5.93          1.011        0.039
  YS02001779           JUNCTION        5.68          0.680        0.000
  YS02001759           JUNCTION        5.97          1.067        0.143
  YS02001890           JUNCTION        0.02          0.004        0.756
  YS02001907           JUNCTION        1.23          0.249        0.701
  YS02001910           JUNCTION        0.21          0.040        1.060
  YS02001619           JUNCTION        5.43          0.610        0.000
  YS02001629           JUNCTION        5.46          0.470        0.000
  YS02001641           JUNCTION        5.93          0.963        0.137
  YS02001644           JUNCTION        5.93          0.920        0.000
  YS02001652           JUNCTION        5.77          1.108        0.022
  YS02001655           JUNCTION        5.49          1.200        0.000
  YS02001658           JUNCTION        5.03          1.300        0.000
  YS02001661           JUNCTION        0.18          1.136        0.254
  YS02001622           JUNCTION        5.51          0.620        0.000
  YS02001633           JUNCTION        5.91          0.953        0.107
  YS02001649           JUNCTION        5.95          1.050        0.000
  YS02001757           JUNCTION        6.03          1.171        0.039
  YS02001625           JUNCTION        5.84          0.780        0.000
  YS02163301           JUNCTION        5.89          0.908        0.122
  YS02163601           JUNCTION        5.95          1.032        0.048
  YS02164001           JUNCTION        5.92          0.966        0.134
  YS02001647           JUNCTION        5.81          0.804        0.096
  YS02006553           JUNCTION        1.31          0.259        0.931
  YS02006556           JUNCTION        0.68          0.173        1.177
  YS02006558           JUNCTION        0.60          0.150        1.250
  YS02001783           JUNCTION        1.06          0.693        0.907
  YS02001784           JUNCTION        1.09          0.826        0.664
  YS02001786           JUNCTION        1.06          0.996        0.434
  YS02001788           JUNCTION        1.05          0.953        0.527
  YS02001790           JUNCTION        1.26          1.157        0.000
  YS02001791           JUNCTION        1.41          0.937        0.983
  YS02001793           JUNCTION        1.74          2.121        0.479
  
  
  *********************
  Node Flooding Summary
  *********************
  
  Flooding refers to all water that overflows a node, whether it ponds or not.
  --------------------------------------------------------------------------
                                                             Total   Maximum
                                 Maximum   Time of Max       Flood    Ponded
                        Hours       Rate    Occurrence      Volume     Depth
  Node                 Flooded       LPS   days hr:min    10^6 ltr    Meters
  --------------------------------------------------------------------------
  YS02001770              0.01      5.48      0  02:19       0.000     0.000
  YS02001779              2.21    352.35      0  03:13       0.639     0.000
  YS02001619              0.01     19.46      0  02:28       0.000     0.000
  YS02001629              0.01     31.16      0  02:30       0.000     0.000
  YS02001644              3.70   1005.72      0  03:09       5.084     0.000
  YS02001655              0.01    222.75      0  02:18       0.000     0.000
  YS02001658              0.01    238.69      0  02:26       0.000     0.000
  YS02001622              0.01     28.35      0  02:30       0.000     0.000
  YS02001649              0.06     38.37      0  02:57       0.003     0.000
  YS02001625              0.35     24.64      0  02:33       0.004     0.000
  YS02001790              0.01     17.36      0  02:20       0.000     0.000
  JK-storage              1.07    735.46      0  03:10       1.669     0.000
  XR-storage              4.02    391.04      0  02:40       2.723     0.000
  
  
  **********************
  Storage Volume Summary
  **********************
  
  --------------------------------------------------------------------------------------------------
                         Average     Avg  Evap Exfil       Maximum     Max    Time of Max    Maximum
                          Volume    Pcnt  Pcnt  Pcnt        Volume    Pcnt     Occurrence    Outflow
  Storage Unit           1000 m3    Full  Loss  Loss       1000 m3    Full    days hr:min        LPS
  --------------------------------------------------------------------------------------------------
  JK-storage               0.127      44     0     0         0.291     100       0  02:19     600.00
  CC-storage               3.072      20     0     0         3.897      25       0  03:07     400.00
  XR-storage               0.880      95     0     0         0.926     100       0  02:10     380.00
  
  
  ***********************
  Outfall Loading Summary
  ***********************
  
  -----------------------------------------------------------
                         Flow       Avg       Max       Total
                         Freq      Flow      Flow      Volume
  Outfall Node           Pcnt       LPS       LPS    10^6 ltr
  -----------------------------------------------------------
  WSC                  100.00    561.64    800.71      14.251
  3                     84.38    250.22    504.00       4.358
  4                     20.14     39.67     93.75       0.222
  5                      0.00      0.00      0.00       0.000
  -----------------------------------------------------------
  System                51.13    851.54   1165.23      18.831
  
  
  ********************
  Link Flow Summary
  ********************
  
  -----------------------------------------------------------------------------
                                 Maximum  Time of Max   Maximum    Max/    Max/
                                  |Flow|   Occurrence   |Veloc|    Full    Full
  Link                 Type          LPS  days hr:min     m/sec    Flow   Depth
  -----------------------------------------------------------------------------
  WS02003066WSF200     CONDUIT    525.64     0  02:12      2.76    0.09    0.23
  WS02006287WS02006284 CONDUIT    250.69     0  01:50      1.73    0.12    0.24
  WS02006284WS02006280 CONDUIT    250.77     0  01:50      1.97    0.11    0.22
  WS02006280WS02006229 CONDUIT    250.77     0  01:50      3.17    0.05    0.16
  WS02006229WS02006228 CONDUIT    524.88     0  02:05      1.04    1.74    1.00
  WS02006256WS02006235 CONDUIT    149.99     0  00:45      2.14    1.59    1.00
  WS02006253WS02006251 CONDUIT     55.26     0  02:04      0.53    0.17    0.89
  WS02006252WS02006251 CONDUIT    400.68     0  06:35      3.19    1.47    1.00
  WS02006251WS02006249 CONDUIT    402.31     0  07:44      1.17    1.16    0.87
  WS02006249WS02006248 CONDUIT    351.68     0  03:50      1.15    1.93    0.82
  WS02006248WS02006247 CONDUIT    345.84     0  03:50      1.11    0.75    0.86
  WS02006247WS02006245 CONDUIT    343.65     0  07:31      1.06    2.72    0.90
  WS02006245WS02006243 CONDUIT    341.25     0  07:31      1.07    1.01    0.90
  WS02006243WS02006242 CONDUIT    337.61     0  06:33      0.97    0.72    0.97
  WS02006242WS02006240 CONDUIT    337.59     0  06:33      0.93    1.34    0.99
  WS02006240WS02006239 CONDUIT    339.29     0  06:32      0.98    1.07    1.00
  WS02006239WS02006238 CONDUIT    337.90     0  06:34      0.92    1.08    1.00
  WS02006238WS02006235 CONDUIT    338.10     0  06:33      0.91    0.75    1.00
  WS02006235WS02006234 CONDUIT    393.92     0  04:41      1.04    4.16    0.99
  WS02006234WS02006232 CONDUIT    391.82     0  04:41      1.02    0.79    1.00
  WS02006232WS02006231 CONDUIT    391.70     0  04:42      1.07    0.82    0.95
  WS02006231WS02006230 CONDUIT    390.49     0  04:42      1.34    5.92    0.89
  WS02006230WS02006229 CONDUIT    400.54     0  04:42      1.04    8.91    1.00
  WS02006228WS02006109 CONDUIT    524.87     0  02:05      1.04    2.29    1.00
  WS02006116WS02004401 CONDUIT    531.49     0  02:07      0.76    0.73    0.83
  WS02006115WS02006116 CONDUIT    533.92     0  02:06      0.93    0.69    0.75
  WS02006113WS02006111 CONDUIT    546.59     0  02:05      2.44    0.66    0.46
  WS02006112WS02006115 CONDUIT    544.38     0  02:08      0.75    0.32    0.87
  WS02006111WS02006112 CONDUIT    531.12     0  02:06      1.48    0.25    0.67
  WS02006110WS02006113 CONDUIT    526.48     0  02:05      1.25    0.48    0.78
  WS02006109WS02006110 CONDUIT    526.10     0  02:05      1.05    1.01    1.00
  WS02004411WS02004412 CONDUIT    525.91     0  02:11      0.91    0.75    0.69
  WS02004401WS02004402 CONDUIT    530.48     0  02:07      0.78    0.64    0.86
  WS02004413WS02003067 CONDUIT    525.49     0  02:11      1.10    0.23    0.59
  WS02004412WS02004413 CONDUIT    525.85     0  02:11      0.81    0.35    0.77
  WS02004410WS02004411 CONDUIT    526.55     0  02:10      0.93    0.72    0.68
  WS02004409WS02004410 CONDUIT    527.54     0  02:09      0.95    0.68    0.67
  WS02004407WS02004409 CONDUIT    529.51     0  02:08      1.45    0.19    0.48
  WS02004406WS02004407 CONDUIT    529.68     0  02:08      1.03    0.24    0.62
  WS02004405WS02004406 CONDUIT    529.97     0  02:09      0.69    1.05    0.95
  WS02004404WS02004405 CONDUIT    529.80     0  02:08      0.79    5.19    0.95
  WS02004403WS02004404 CONDUIT    529.62     0  02:08      0.80    0.38    0.92
  WS02004402WS02004403 CONDUIT    530.08     0  02:07      0.86    0.76    0.88
  WS02004139WS02001211 CONDUIT    379.77     0  07:50      0.81    0.48    0.59
  WS02004138WS02004139 CONDUIT    380.00     0  07:42      3.34    0.08    0.43
  WS02003067WS02003066 CONDUIT    525.58     0  02:12      1.19    0.17    0.41
  WS02001213WS02003059 CONDUIT    385.66     0  07:50      0.78    0.64    0.74
  WS02001212WS02001213 CONDUIT    386.08     0  07:50      1.19    0.60    0.45
  WS02001211WS02001212 CONDUIT    386.49     0  07:50      0.74    0.30    0.63
  WS02003072WS02003073 CONDUIT    801.37     0  07:50      1.63    1.73    0.45
  WS02003069WS02003072 CONDUIT    802.37     0  07:50      1.54    0.39    0.47
  WS02003060WS02003069 CONDUIT    802.91     0  07:50      1.80    0.31    0.42
  WS02003059WS02003060 CONDUIT    385.10     0  07:50      0.82    0.25    0.62
  HS02004901HS02004770 CONDUIT     11.86     0  01:47      0.05    0.04    0.34
  HS02004876HS02004881 CONDUIT     44.96     0  01:50      0.68    0.48    0.09
  HS02004870HS02004876 CONDUIT     35.89     0  01:50      0.47    0.02    0.11
  HS02004842HS02004848 CONDUIT      7.96     0  02:16      0.04    0.00    0.28
  HS02004837HS02004842 CONDUIT      8.06     0  02:20      0.42    0.00    0.30
  HS02004830HS02004837 CONDUIT     28.75     0  01:51      0.48    0.03    0.09
  HS02004824HS02004830 CONDUIT     28.90     0  01:52      0.51    0.04    0.08
  HS02004817HS02004824 CONDUIT     52.78     0  02:16      0.18    0.02    0.42
  HS02004770HS02004777 CONDUIT     61.66     0  01:46      0.25    0.11    0.35
  HS02004799HS02004480 CONDUIT    155.54     0  01:47      0.65    0.20    0.34
  HS02004792HS02004799 CONDUIT    141.71     0  01:47      0.74    0.09    0.27
  HS02004788HS02004792 CONDUIT     82.36     0  01:48      0.88    0.05    0.13
  HS02004785HS02004788 CONDUIT     61.65     0  01:48      0.55    0.46    0.16
  HS02004777HS02004785 CONDUIT     61.54     0  01:47      0.30    0.08    0.29
  HS02004480HS02004478 CONDUIT    184.33     0  01:49      1.04    0.78    0.25
  HS02004479HS02004480 CONDUIT     29.23     0  01:51      0.28    0.03    0.33
  HS02004862HS02004870 CONDUIT     26.75     0  01:51      0.52    0.03    0.07
  HS02004848HS02004852 CONDUIT     11.37     0  01:51      0.35    0.01    0.05
  HS02004856HS02004862 CONDUIT     18.17     0  01:51      0.38    0.02    0.07
  HS02004852HS02004856 CONDUIT     11.35     0  01:52      0.16    0.01    0.10
  HS02004802HS02004478 CONDUIT     68.53     0  02:17      0.36    0.06    0.28
  HS02004478WS02006287 CONDUIT    250.70     0  01:50      1.43    0.07    0.19
  HS02004817HS02004807 CONDUIT     53.47     0  02:17      0.14    0.03    0.54
  HS02004807HS02004802 CONDUIT     68.45     0  02:16      0.30    0.13    0.33
  YS02001759YS02001757 CONDUIT    448.01     0  02:48      0.57    0.32    1.00
  YS02001762YS02001759 CONDUIT    243.42     0  02:16      0.31    0.28    1.00
  YS02001765YS02001762 CONDUIT    238.32     0  02:16      0.30    0.22    1.00
  YS02001770YS02001767 CONDUIT    229.44     0  02:48      0.38    0.91    1.00
  YS02001774YS02001770 CONDUIT    352.03     0  03:13      0.45    0.22    1.00
  YS02001779YS02001774 CONDUIT    352.42     0  03:13      0.45    0.18    1.00
  YS02001649YS02001757 CONDUIT    705.20     0  02:42      0.90    0.43    1.00
  YS02001767YS02001765 CONDUIT    232.88     0  02:21      0.35    0.29    1.00
  YS02006561YS02001783 CONDUIT    753.32     0  03:03      2.12    0.39    0.85
  YS02001783YS02001784 CONDUIT    753.50     0  03:03      1.57    1.04    1.00
  YS02001784YS02001785 CONDUIT    754.46     0  03:04      1.70    1.76    1.00
  YS02001788YS02001790 CONDUIT    754.50     0  03:03      2.24    0.56    1.00
  YS02001790YS02001791 CONDUIT    754.80     0  03:03      2.64    0.82    1.00
  YS02001791YS02001793 CONDUIT    754.87     0  03:04      5.39    0.32    1.00
  YS02001910YS02001907 CONDUIT    270.48     0  03:18      0.49    0.15    1.00
  YS02001786YS02001788 CONDUIT    754.39     0  03:04      2.14    1.45    1.00
  YS02001915YS02001910 CONDUIT    267.72     0  03:09      0.56    0.13    0.92
  YS02001918YS02001915 CONDUIT    110.73     0  03:14      0.44    0.06    0.66
  YS02001923YS02001920 CONDUIT    102.72     0  03:04      0.64    0.05    0.42
  YS02001926YS02001923 CONDUIT     91.45     0  03:01      0.74    0.13    0.21
  YS02001929YS02001926 CONDUIT     91.54     0  03:01      0.81    0.04    0.20
  YS02001920YS02001918 CONDUIT    107.67     0  03:15      0.63    0.10    0.52
  YS02001629YS02163301 CONDUIT    185.82     0  02:19      0.24    0.23    1.00
  YS02001619YS02001622 CONDUIT    170.08     0  02:17      0.65    0.25    1.00
  YS02001622YS02001625 CONDUIT    221.11     0  02:16      0.32    0.12    1.00
  YS02001625YS02001629 CONDUIT    220.53     0  02:16      0.28    0.10    1.00
  YS02163301YS02001633 CONDUIT    184.75     0  02:19      0.24    0.17    1.00
  YS02163601YS02164001 CONDUIT    352.16     0  02:59      0.45    0.31    1.00
  YS02164001YS02001641 CONDUIT    352.32     0  03:00      0.45    0.48    1.00
  YS02001641YS02001644 CONDUIT    352.31     0  03:00      0.45    1.14    1.00
  YS02001647YS02001649 CONDUIT    511.66     0  03:12      0.65    0.27    1.00
  YS02006553YS02006556 CONDUIT    527.65     0  03:06      0.67    0.45    1.00
  YS02006556YS02006558 CONDUIT    528.52     0  03:07      0.67    0.42    1.00
  YSB6556YSB1171       CONDUIT     16.50     0  01:50      0.07    0.02    0.60
  YS02001907YS02006553 CONDUIT    528.19     0  03:07      0.59    0.62    1.00
  YS02006558YS02006561 CONDUIT    753.55     0  03:04      3.18    1.67    0.97
  YS02001633YS02163601 CONDUIT    351.98     0  03:00      0.45    0.37    1.00
  YS02001644YS02001647 CONDUIT    511.52     0  03:11      0.65    0.30    1.00
  YS02001745YS02001748 CONDUIT    451.86     0  02:33      1.51    0.17    0.94
  YS02001748YS02001751 CONDUIT    452.74     0  02:15      1.12    0.23    1.00
  YS02001751YS02001754 CONDUIT    225.49     0  02:16      0.97    0.11    1.00
  YS02001754YS02001757 CONDUIT    207.33     0  03:01      0.33    0.08    1.00
  YS02001882YS02001884 CONDUIT     15.46     0  02:18      0.12    0.02    0.86
  YS02001884YS02001887 CONDUIT     22.96     0  03:26      0.09    0.03    0.96
  YS02001890YS02001895 CONDUIT    271.06     0  02:23      0.44    0.13    0.90
  YS02001895YS02001898 CONDUIT    268.01     0  02:23      0.56    0.47    0.79
  YS02001898YS02001901 CONDUIT    268.65     0  02:24      0.48    0.17    0.88
  YS02001901YS02001904 CONDUIT    263.43     0  03:02      0.44    0.41    0.93
  YS02001904YS02001907 CONDUIT    265.35     0  02:24      0.37    0.09    0.96
  YS02001887YS02001890 CONDUIT    268.59     0  03:00      0.39    0.46    1.00
  YS02001652YS02001649 CONDUIT    261.84     0  02:24      0.58    0.13    1.00
  YS02001655YS02001652 CONDUIT    261.32     0  02:24      1.05    0.13    1.00
  YS02001658YS02001655 CONDUIT    410.51     0  02:18      1.29    0.17    1.00
  YS02001661YS02001658 CONDUIT    604.31     0  02:24      1.59    0.24    1.00
  YS02001664YS02001661 CONDUIT    598.05     0  02:44      1.44    0.19    0.73
  YSB1154YSB6556       CONDUIT     16.24     0  01:49      0.16    0.03    0.49
  YSB1174YSB1171       CONDUIT     13.23     0  01:45      0.06    0.02    0.61
  YSB1171HS02004479    CONDUIT     29.01     0  01:50      0.54    0.02    0.47
  HS02004881HS02006253 CONDUIT     49.92     0  01:50      1.83    0.01    0.22
  YS02001793JiankangQianchi CONDUIT    863.97     0  02:17     12.43    0.07    1.00
  YS02001757CaochengTiaoxuchi CONDUIT   1299.16     0  02:42      1.82    0.57    1.00
  WSF200WS02003060     CONDUIT    525.83     0  02:12      1.86    0.12    0.31
  1                    CONDUIT    800.71     0  07:50      3.13    0.28    0.36
  2                    CONDUIT     93.75     0  07:43      4.76    0.22    0.32
  3                    CONDUIT    504.00     0  04:42      9.80    0.80    0.68
  4                    CONDUIT      0.00     0  00:00      0.00    0.00    0.00
  CC-Pump-1            PUMP       200.00     0  04:30              1.00
  CC-Pump-2            PUMP       200.00     0  03:50              1.00
  JK-Pump-1            PUMP       300.00     0  02:30              1.00
  JK-Pump-2            PUMP       300.00     0  01:50              1.00
  XR-Pump-1            PUMP        95.00     0  00:00              1.00
  XR-Pump-2            PUMP        95.00     0  00:00              1.00
  XR-Pump-3            PUMP        95.00     0  00:00              1.00
  XR-Pump-4            PUMP        95.00     0  01:30              1.00
  
  
  ***************************
  Flow Classification Summary
  ***************************
  
  -------------------------------------------------------------------------------------
                      Adjusted    ---------- Fraction of Time in Flow Class ---------- 
                       /Actual         Up    Down  Sub   Sup   Up    Down  Norm  Inlet 
  Conduit               Length    Dry  Dry   Dry   Crit  Crit  Crit  Crit  Ltd   Ctrl  
  -------------------------------------------------------------------------------------
  WS02003066WSF200        1.00   0.05  0.00  0.00  0.00  0.95  0.00  0.00  0.75  0.00
  WS02006287WS02006284    1.00   0.02  0.02  0.00  0.61  0.34  0.00  0.00  0.70  0.00
  WS02006284WS02006280    1.00   0.04  0.00  0.00  0.00  0.00  0.00  0.96  0.00  0.00
  WS02006280WS02006229    1.00   0.04  0.00  0.00  0.00  0.00  0.00  0.96  0.00  0.00
  WS02006229WS02006228    1.00   0.00  0.00  0.00  1.00  0.00  0.00  0.00  0.00  0.00
  WS02006256WS02006235    1.00   0.01  0.00  0.00  0.99  0.00  0.00  0.00  0.00  0.00
  WS02006253WS02006251    1.00   0.01  0.03  0.00  0.96  0.00  0.01  0.00  0.00  0.00
  WS02006252WS02006251    1.00   0.06  0.00  0.00  0.00  0.00  0.94  0.00  0.00  0.00
  WS02006251WS02006249    1.00   0.00  0.00  0.00  1.00  0.00  0.00  0.00  0.23  0.00
  WS02006249WS02006248    1.00   0.00  0.00  0.00  0.88  0.00  0.12  0.00  0.00  0.00
  WS02006248WS02006247    1.00   0.00  0.00  0.00  0.99  0.00  0.00  0.01  0.14  0.00
  WS02006247WS02006245    1.00   0.00  0.00  0.00  0.97  0.00  0.00  0.02  0.00  0.00
  WS02006245WS02006243    1.00   0.01  0.00  0.00  0.97  0.00  0.00  0.03  0.02  0.00
  WS02006243WS02006242    1.00   0.01  0.00  0.00  0.98  0.00  0.00  0.01  0.10  0.00
  WS02006242WS02006240    1.00   0.01  0.01  0.00  0.98  0.00  0.00  0.00  0.00  0.00
  WS02006240WS02006239    1.00   0.01  0.00  0.00  0.97  0.00  0.00  0.01  0.01  0.00
  WS02006239WS02006238    1.00   0.01  0.00  0.00  0.99  0.00  0.00  0.00  0.01  0.00
  WS02006238WS02006235    1.00   0.01  0.00  0.00  0.99  0.00  0.00  0.00  0.00  0.00
  WS02006235WS02006234    1.00   0.01  0.00  0.00  0.98  0.00  0.01  0.00  0.00  0.00
  WS02006234WS02006232    1.00   0.01  0.00  0.00  0.99  0.00  0.00  0.00  0.00  0.00
  WS02006232WS02006231    1.00   0.01  0.00  0.00  0.98  0.00  0.00  0.00  0.00  0.00
  WS02006231WS02006230    1.00   0.02  0.00  0.00  0.62  0.00  0.36  0.00  0.00  0.00
  WS02006230WS02006229    1.00   0.00  0.00  0.00  0.99  0.00  0.00  0.01  0.00  0.00
  WS02006228WS02006109    1.00   0.00  0.00  0.00  1.00  0.00  0.00  0.00  0.00  0.00
  WS02006116WS02004401    1.00   0.03  0.00  0.00  0.97  0.00  0.00  0.00  0.00  0.00
  WS02006115WS02006116    1.00   0.03  0.00  0.00  0.96  0.00  0.00  0.01  0.00  0.00
  WS02006113WS02006111    1.00   0.01  0.00  0.00  0.01  0.98  0.00  0.00  0.14  0.00
  WS02006112WS02006115    1.00   0.01  0.01  0.00  0.97  0.00  0.01  0.00  0.00  0.00
  WS02006111WS02006112    1.00   0.01  0.00  0.00  0.99  0.00  0.00  0.00  0.92  0.00
  WS02006110WS02006113    1.00   0.00  0.01  0.00  0.99  0.00  0.00  0.00  0.00  0.00
  WS02006109WS02006110    1.00   0.00  0.00  0.00  1.00  0.00  0.00  0.00  0.00  0.00
  WS02004411WS02004412    1.00   0.04  0.00  0.00  0.96  0.00  0.00  0.00  0.00  0.00
  WS02004401WS02004402    1.00   0.03  0.00  0.00  0.97  0.00  0.00  0.00  0.00  0.00
  WS02004413WS02003067    1.00   0.04  0.00  0.00  0.00  0.00  0.96  0.00  0.00  0.00
  WS02004412WS02004413    1.00   0.04  0.00  0.00  0.96  0.00  0.00  0.00  0.01  0.00
  WS02004410WS02004411    1.00   0.04  0.00  0.00  0.96  0.00  0.00  0.00  0.00  0.00
  WS02004409WS02004410    1.00   0.04  0.00  0.00  0.96  0.00  0.00  0.00  0.01  0.00
  WS02004407WS02004409    1.00   0.04  0.00  0.00  0.96  0.00  0.00  0.00  0.86  0.00
  WS02004406WS02004407    1.00   0.00  0.04  0.00  0.96  0.00  0.00  0.00  0.00  0.00
  WS02004405WS02004406    1.00   0.00  0.00  0.00  1.00  0.00  0.00  0.00  0.04  0.00
  WS02004404WS02004405    1.00   0.00  0.00  0.00  1.00  0.00  0.00  0.00  0.00  0.00
  WS02004403WS02004404    1.00   0.00  0.03  0.00  0.97  0.00  0.00  0.00  0.01  0.00
  WS02004402WS02004403    1.00   0.03  0.00  0.00  0.97  0.00  0.00  0.00  0.00  0.00
  WS02004139WS02001211    1.00   0.00  0.00  0.00  1.00  0.00  0.00  0.00  0.00  0.00
  WS02004138WS02004139    1.00   0.00  0.00  0.00  1.00  0.00  0.00  0.00  1.00  0.00
  WS02003067WS02003066    1.00   0.04  0.00  0.00  0.95  0.00  0.00  0.00  0.00  0.00
  WS02001213WS02003059    1.00   0.00  0.00  0.00  1.00  0.00  0.00  0.00  0.00  0.00
  WS02001212WS02001213    1.00   0.00  0.00  0.00  0.87  0.00  0.13  0.00  0.00  0.00
  WS02001211WS02001212    1.00   0.00  0.00  0.00  1.00  0.00  0.00  0.00  0.00  0.00
  WS02003072WS02003073    1.00   0.00  0.00  0.00  0.00  0.00  0.00  1.00  0.00  0.00
  WS02003069WS02003072    1.00   0.00  0.00  0.00  1.00  0.00  0.00  0.00  0.21  0.00
  WS02003060WS02003069    1.00   0.00  0.00  0.00  1.00  0.00  0.00  0.00  0.09  0.00
  WS02003059WS02003060    1.00   0.00  0.00  0.00  1.00  0.00  0.00  0.00  0.01  0.00
  HS02004901HS02004770    1.00   0.04  0.00  0.00  0.96  0.00  0.00  0.00  0.00  0.00
  HS02004876HS02004881    1.00   0.00  0.00  0.00  1.00  0.00  0.00  0.00  0.00  0.00
  HS02004870HS02004876    1.00   0.00  0.00  0.00  1.00  0.00  0.00  0.00  0.95  0.00
  HS02004842HS02004848    1.00   0.00  0.04  0.00  0.96  0.00  0.00  0.00  0.58  0.00
  HS02004837HS02004842    1.00   0.00  0.00  0.00  1.00  0.00  0.00  0.00  0.11  0.00
  HS02004830HS02004837    1.00   0.00  0.00  0.00  1.00  0.00  0.00  0.00  0.99  0.00
  HS02004824HS02004830    1.00   0.00  0.00  0.00  1.00  0.00  0.00  0.00  0.00  0.00
  HS02004817HS02004824    1.00   0.00  0.00  0.00  1.00  0.00  0.00  0.00  1.00  0.00
  HS02004770HS02004777    1.00   0.00  0.04  0.00  0.96  0.00  0.00  0.00  0.03  0.00
  HS02004799HS02004480    1.00   0.00  0.01  0.00  0.96  0.00  0.04  0.00  0.00  0.00
  HS02004792HS02004799    1.00   0.00  0.00  0.00  1.00  0.00  0.00  0.00  0.98  0.00
  HS02004788HS02004792    1.00   0.00  0.00  0.00  1.00  0.00  0.00  0.00  0.98  0.00
  HS02004785HS02004788    1.00   0.00  0.00  0.00  1.00  0.00  0.00  0.00  0.00  0.00
  HS02004777HS02004785    1.00   0.00  0.00  0.00  1.00  0.00  0.00  0.00  0.12  0.00
  HS02004480HS02004478    1.00   0.04  0.00  0.00  0.67  0.00  0.00  0.29  0.00  0.00
  HS02004479HS02004480    1.00   0.01  0.00  0.00  0.99  0.00  0.00  0.00  0.12  0.00
  HS02004862HS02004870    1.00   0.00  0.00  0.00  1.00  0.00  0.00  0.00  0.04  0.00
  HS02004848HS02004852    1.00   0.04  0.00  0.00  0.96  0.00  0.00  0.00  0.77  0.00
  HS02004856HS02004862    1.00   0.00  0.05  0.00  0.95  0.00  0.00  0.00  0.83  0.00
  HS02004852HS02004856    1.00   0.04  0.00  0.00  0.96  0.00  0.00  0.00  0.86  0.00
  HS02004802HS02004478    1.00   0.04  0.00  0.00  0.96  0.00  0.00  0.00  0.03  0.00
  HS02004478WS02006287    1.00   0.04  0.00  0.00  0.74  0.21  0.00  0.00  0.68  0.00
  HS02004817HS02004807    1.00   0.00  0.04  0.00  0.96  0.00  0.00  0.00  0.01  0.00
  HS02004807HS02004802    1.00   0.04  0.00  0.00  0.96  0.00  0.00  0.00  0.00  0.00
  YS02001759YS02001757    1.00   0.00  0.00  0.00  1.00  0.00  0.00  0.00  0.16  0.00
  YS02001762YS02001759    1.00   0.00  0.00  0.00  1.00  0.00  0.00  0.00  0.03  0.00
  YS02001765YS02001762    1.00   0.00  0.00  0.00  1.00  0.00  0.00  0.00  0.14  0.00
  YS02001770YS02001767    1.00   0.00  0.00  0.00  1.00  0.00  0.00  0.00  0.00  0.00
  YS02001774YS02001770    1.00   0.00  0.04  0.00  0.96  0.00  0.00  0.00  0.03  0.00
  YS02001779YS02001774    1.00   0.00  0.00  0.00  1.00  0.00  0.00  0.00  0.18  0.00
  YS02001649YS02001757    1.00   0.00  0.00  0.00  1.00  0.00  0.00  0.00  0.16  0.00
  YS02001767YS02001765    1.00   0.00  0.00  0.00  1.00  0.00  0.00  0.00  0.00  0.00
  YS02006561YS02001783    1.00   0.05  0.00  0.00  0.18  0.77  0.00  0.00  0.53  0.00
  YS02001783YS02001784    1.00   0.00  0.05  0.00  0.95  0.00  0.00  0.00  0.00  0.00
  YS02001784YS02001785    1.00   0.00  0.00  0.00  1.00  0.00  0.00  0.00  0.17  0.00
  YS02001788YS02001790    1.00   0.00  0.00  0.00  0.29  0.71  0.00  0.00  0.53  0.00
  YS02001790YS02001791    1.00   0.00  0.00  0.00  0.28  0.72  0.00  0.00  0.57  0.00
  YS02001791YS02001793    1.00   0.00  0.00  0.00  0.37  0.63  0.00  0.00  0.05  0.00
  YS02001910YS02001907    1.00   0.00  0.00  0.00  1.00  0.00  0.00  0.00  0.12  0.00
  YS02001786YS02001788    1.00   0.00  0.00  0.00  0.25  0.75  0.00  0.00  0.00  0.00
  YS02001915YS02001910    1.00   0.00  0.00  0.00  0.99  0.01  0.00  0.00  0.16  0.00
  YS02001918YS02001915    1.00   0.00  0.00  0.00  1.00  0.00  0.00  0.00  0.60  0.00
  YS02001923YS02001920    1.00   0.00  0.00  0.00  1.00  0.00  0.00  0.00  0.93  0.00
  YS02001926YS02001923    1.00   0.00  0.01  0.00  0.00  0.00  0.99  0.00  0.00  0.00
  YS02001929YS02001926    1.00   0.00  0.04  0.00  0.96  0.00  0.00  0.00  0.87  0.00
  YS02001920YS02001918    1.00   0.00  0.00  0.00  1.00  0.00  0.00  0.00  0.00  0.00
  YS02001629YS02163301    1.00   0.04  0.00  0.00  0.96  0.00  0.00  0.00  0.00  0.00
  YS02001619YS02001622    1.00   0.04  0.00  0.00  0.96  0.00  0.00  0.00  0.00  0.00
  YS02001622YS02001625    1.00   0.04  0.00  0.00  0.96  0.00  0.00  0.00  0.04  0.00
  YS02001625YS02001629    1.00   0.04  0.01  0.00  0.94  0.00  0.01  0.00  0.00  0.00
  YS02163301YS02001633    1.00   0.00  0.04  0.00  0.96  0.00  0.00  0.00  0.00  0.00
  YS02163601YS02164001    1.00   0.00  0.01  0.00  0.99  0.00  0.00  0.00  0.00  0.00
  YS02164001YS02001641    1.00   0.00  0.01  0.00  0.99  0.00  0.00  0.00  0.06  0.00
  YS02001641YS02001644    1.00   0.00  0.00  0.00  1.00  0.00  0.00  0.00  0.00  0.00
  YS02001647YS02001649    1.00   0.00  0.05  0.00  0.95  0.00  0.00  0.00  0.01  0.00
  YS02006553YS02006556    1.00   0.00  0.00  0.00  1.00  0.00  0.00  0.00  0.03  0.00
  YS02006556YS02006558    1.00   0.00  0.00  0.00  1.00  0.00  0.00  0.00  0.00  0.00
  YSB6556YSB1171          1.00   0.01  0.03  0.00  0.96  0.00  0.00  0.00  0.00  0.00
  YS02001907YS02006553    1.00   0.00  0.00  0.00  1.00  0.00  0.00  0.00  0.00  0.00
  YS02006558YS02006561    1.00   0.05  0.00  0.00  0.05  0.90  0.00  0.00  0.52  0.00
  YS02001633YS02163601    1.00   0.00  0.00  0.00  1.00  0.00  0.00  0.00  0.15  0.00
  YS02001644YS02001647    1.00   0.00  0.05  0.00  0.95  0.00  0.00  0.00  0.00  0.00
  YS02001745YS02001748    1.00   0.00  0.00  0.00  0.92  0.01  0.00  0.07  0.04  0.00
  YS02001748YS02001751    1.00   0.00  0.00  0.00  0.98  0.02  0.00  0.00  0.14  0.00
  YS02001751YS02001754    1.00   0.00  0.00  0.00  0.95  0.00  0.00  0.05  0.02  0.00
  YS02001754YS02001757    1.00   0.00  0.00  0.00  1.00  0.00  0.00  0.00  0.18  0.00
  YS02001882YS02001884    1.00   0.04  0.00  0.00  0.96  0.00  0.00  0.00  0.00  0.00
  YS02001884YS02001887    1.00   0.01  0.02  0.00  0.97  0.00  0.00  0.00  0.00  0.00
  YS02001890YS02001895    1.00   0.00  0.04  0.00  0.96  0.00  0.00  0.00  0.00  0.00
  YS02001895YS02001898    1.00   0.04  0.00  0.00  0.95  0.00  0.01  0.00  0.00  0.00
  YS02001898YS02001901    1.00   0.04  0.00  0.00  0.96  0.00  0.00  0.00  0.01  0.00
  YS02001901YS02001904    1.00   0.05  0.00  0.00  0.95  0.00  0.00  0.00  0.00  0.00
  YS02001904YS02001907    1.00   0.00  0.04  0.00  0.95  0.00  0.00  0.00  0.00  0.00
  YS02001887YS02001890    1.00   0.00  0.00  0.00  0.99  0.00  0.00  0.00  0.00  0.00
  YS02001652YS02001649    1.00   0.00  0.00  0.00  1.00  0.00  0.00  0.00  0.16  0.00
  YS02001655YS02001652    1.00   0.00  0.00  0.00  0.95  0.00  0.00  0.05  0.02  0.00
  YS02001658YS02001655    1.00   0.00  0.04  0.00  0.94  0.02  0.00  0.00  0.05  0.00
  YS02001661YS02001658    1.00   0.04  0.00  0.00  0.92  0.04  0.00  0.00  0.04  0.00
  YS02001664YS02001661    1.00   0.04  0.00  0.00  0.88  0.08  0.00  0.00  0.20  0.00
  YSB1154YSB6556          1.00   0.04  0.00  0.00  0.96  0.00  0.00  0.00  0.02  0.00
  YSB1174YSB1171          1.00   0.01  0.01  0.00  0.98  0.00  0.00  0.00  0.00  0.00
  YSB1171HS02004479       1.00   0.01  0.00  0.00  0.99  0.00  0.00  0.00  0.10  0.00
  HS02004881HS02006253    1.00   0.01  0.00  0.00  0.64  0.05  0.00  0.30  0.55  0.00
  YS02001793JiankangQianchi    1.00   0.00  0.00  0.00  0.69  0.31  0.00  0.00  0.43  0.00
  YS02001757CaochengTiaoxuchi    1.00   0.00  0.06  0.00  0.94  0.00  0.00  0.00  0.00  0.00
  WSF200WS02003060        1.00   0.00  0.05  0.00  0.56  0.39  0.00  0.00  0.17  0.00
  1                       1.00   0.00  0.00  0.00  0.00  1.00  0.00  0.00  0.27  0.00
  2                       1.00   0.80  0.00  0.00  0.00  0.20  0.00  0.00  0.04  0.00
  3                       1.00   0.16  0.00  0.00  0.00  0.84  0.00  0.00  0.10  0.00
  4                       1.00   1.00  0.00  0.00  0.00  0.00  0.00  0.00  0.00  0.00
  
  
  *************************
  Conduit Surcharge Summary
  *************************
  
  ----------------------------------------------------------------------------
                                                           Hours        Hours 
                         --------- Hours Full --------   Above Full   Capacity
  Conduit                Both Ends  Upstream  Dnstream   Normal Flow   Limited
  ----------------------------------------------------------------------------
  WS02006229WS02006228        1.59      1.81      1.59      4.83         1.59
  WS02006256WS02006235        6.32      6.32      7.05      4.50         0.01
  WS02006252WS02006251        0.89      0.89      1.58      1.40         0.01
  WS02006251WS02006249        0.01      0.01      0.01      0.85         0.01
  WS02006249WS02006248        0.01      0.01      0.01      3.88         0.01
  WS02006247WS02006245        0.01      0.01      0.01      4.39         0.01
  WS02006245WS02006243        0.01      0.01      0.01      0.02         0.01
  WS02006243WS02006242        0.01      0.01      0.46      0.01         0.01
  WS02006242WS02006240        0.01      0.01      0.71      1.52         0.01
  WS02006240WS02006239        0.01      0.01      0.03      0.29         0.01
  WS02006239WS02006238        0.65      0.65      0.79      0.45         0.14
  WS02006238WS02006235        0.69      0.69      1.07      0.01         0.01
  WS02006235WS02006234        0.01      0.01      0.40      6.31         0.01
  WS02006234WS02006232        0.01      0.01      1.29      0.01         0.01
  WS02006232WS02006231        0.01      0.01      1.29      0.01         0.01
  WS02006231WS02006230        0.01      0.01      0.01      6.36         0.01
  WS02006230WS02006229        3.10      4.43      3.10      6.45         3.10
  WS02006228WS02006109        1.71      2.36      1.71      5.73         1.71
  WS02006112WS02006115        0.01      0.01      0.42      0.01         0.01
  WS02006111WS02006112        0.01      0.01      5.02      0.01         0.01
  WS02006110WS02006113        0.01      0.01      2.06      0.01         0.01
  WS02006109WS02006110        0.06      0.06      2.36      0.07         0.01
  WS02004405WS02004406        0.01      0.01      0.01      0.26         0.01
  WS02004404WS02004405        0.01      0.01      0.01      6.26         0.01
  WS02003072WS02003073        0.01      0.01      0.01      5.46         0.01
  YS02001759YS02001757        5.97      5.97      6.03      0.01         0.01
  YS02001762YS02001759        5.94      5.94      5.97      0.01         0.01
  YS02001765YS02001762        5.92      5.92      5.94      0.01         0.01
  YS02001770YS02001767        5.90      5.90      5.90      0.01         0.77
  YS02001774YS02001770        5.88      5.88      5.93      0.01         0.01
  YS02001779YS02001774        5.68      5.68      5.93      0.01         0.01
  YS02001649YS02001757        5.95      5.95      6.03      0.01         0.01
  YS02001767YS02001765        5.90      5.90      5.92      0.01         0.01
  YS02006561YS02001783        0.01      0.01      1.06      0.01         0.01
  YS02001783YS02001784        1.06      1.06      1.09      0.31         0.27
  YS02001784YS02001785        1.06      1.09      1.06      1.90         1.06
  YS02001788YS02001790        1.05      1.05      1.26      0.01         0.01
  YS02001790YS02001791        1.26      1.26      1.41      0.01         0.01
  YS02001791YS02001793        1.41      1.41      2.06      0.01         0.01
  YS02001910YS02001907        0.21      0.21      1.23      0.01         0.01
  YS02001786YS02001788        1.05      1.06      1.05      1.49         1.05
  YS02001915YS02001910        0.01      0.01      0.21      0.01         0.01
  YS02001629YS02163301        5.88      5.88      5.89      0.01         0.01
  YS02001619YS02001622        5.43      5.43      5.51      0.01         0.02
  YS02001622YS02001625        5.51      5.51      5.84      0.01         0.01
  YS02001625YS02001629        5.46      5.46      5.84      0.01         0.01
  YS02163301YS02001633        5.89      5.89      5.92      0.01         0.01
  YS02163601YS02164001        5.92      5.92      5.95      0.01         0.01
  YS02164001YS02001641        5.92      5.92      5.93      0.01         0.03
  YS02001641YS02001644        5.93      5.93      5.93      0.74         1.20
  YS02001647YS02001649        5.81      5.81      5.95      0.01         0.01
  YS02006553YS02006556        0.67      0.67      1.31      0.01         0.01
  YS02006556YS02006558        1.03      1.03      1.40      0.01         0.01
  YS02001907YS02006553        1.92      1.92      2.14      0.01         0.01
  YS02006558YS02006561        0.01      0.60      0.01      1.76         0.01
  YS02001633YS02163601        5.91      5.91      5.95      0.01         0.01
  YS02001644YS02001647        5.81      5.81      5.93      0.01         0.01
  YS02001745YS02001748        0.01      0.01      4.95      0.01         0.01
  YS02001748YS02001751        5.26      5.26      5.47      0.01         0.01
  YS02001751YS02001754        5.47      5.47      5.72      0.01         0.01
  YS02001754YS02001757        5.80      5.80      6.03      0.01         0.01
  YS02001890YS02001895        0.01      0.01      0.26      0.01         0.01
  YS02001904YS02001907        0.01      0.01      1.34      0.01         0.01
  YS02001887YS02001890        0.02      0.02      0.15      0.01         0.01
  YS02001652YS02001649        5.83      5.83      5.95      0.01         0.01
  YS02001655YS02001652        5.48      5.48      5.77      0.01         0.01
  YS02001658YS02001655        5.03      5.03      5.48      0.01         0.01
  YS02001661YS02001658        0.16      0.16      5.03      0.01         0.01
  YS02001664YS02001661        0.01      0.01      1.01      0.01         0.01
  YS02001793JiankangQianchi        1.74      1.74      4.41      0.01         0.01
  YS02001757CaochengTiaoxuchi        5.15      5.15      6.03      0.01         0.01
  
  
  ***************
  Pumping Summary
  ***************
  
  ---------------------------------------------------------------------------------------------------------
                                                  Min       Avg       Max     Total     Power    % Time Off
                        Percent   Number of      Flow      Flow      Flow    Volume     Usage    Pump Curve
  Pump                 Utilized   Start-Ups       LPS       LPS       LPS  10^6 ltr     Kw-hr    Low   High
  ---------------------------------------------------------------------------------------------------------
  CC-Pump-1               55.59           6      0.00    131.55    200.00     2.100      2.71    0.0    7.9
  CC-Pump-2               55.59           7      0.00    125.10    200.00     1.980      2.25    0.0    0.5
  JK-Pump-1               55.32           5      0.00    205.79    300.00     3.066     33.82    0.0    0.0
  JK-Pump-2               76.59           6      0.00    188.62    300.00     3.538     44.76    0.0    0.0
  XR-Pump-1               87.22           9      0.00     67.11     95.00     1.710     12.30    0.0    0.0
  XR-Pump-2               80.85           6      0.00     70.45     95.00     1.653     11.94    0.0    0.0
  XR-Pump-3               85.10           9      0.00     56.45     95.00     1.482     11.16    0.0    0.0
  XR-Pump-4               68.06           9      0.00     66.69     95.00     1.225      8.06    0.0    0.0
  

  Analysis begun on:  Tue Dec 21 00:12:18 2021
  Analysis ended on:  Tue Dec 21 00:12:23 2021
  Total elapsed time: 00:00:05