
  EPA STORM WATER MANAGEMENT MODEL - VERSION 5.1 (Build 5.3.0.dev0)
  --------------------------------------------------------------

  WARNING 04: minimum elevation drop used for Conduit WS02004404WS02004405
  WARNING 03: negative offset ignored for Link YS02001904YS02001907
  
  *********************************************************
  NOTE: The summary statistics displayed in this report are
  based on results found at every computational time step,  
  not just on results from each reporting time step.
  *********************************************************
  
  ****************
  Analysis Options
  ****************
  Flow Units ............... LPS
  Process Models:
    Rainfall/Runoff ........ YES
    RDII ................... NO
    Snowmelt ............... NO
    Groundwater ............ NO
    Flow Routing ........... YES
    Ponding Allowed ........ NO
    Water Quality .......... NO
  Infiltration Method ...... HORTON
  Flow Routing Method ...... DYNWAVE
  Surcharge Method ......... EXTRAN
  Starting Date ............ 08/28/2015 08:00:00
  Ending Date .............. 08/28/2015 15:50:00
  Antecedent Dry Days ...... 8.0
  Report Time Step ......... 00:01:00
  Wet Time Step ............ 00:01:00
  Dry Time Step ............ 00:01:00
  Routing Time Step ........ 5.00 sec
  Variable Time Step ....... YES
  Maximum Trials ........... 8
  Number of Threads ........ 4
  Head Tolerance ........... 0.001500 m
  
  
  **************************        Volume         Depth
  Runoff Quantity Continuity     hectare-m            mm
  **************************     ---------       -------
  Total Precipitation ......         7.641        16.729
  Evaporation Loss .........         0.000         0.000
  Infiltration Loss ........         1.880         4.117
  Surface Runoff ...........         4.668        10.221
  Final Storage ............         1.093         2.393
  Continuity Error (%) .....        -0.013
  
  
  **************************        Volume        Volume
  Flow Routing Continuity        hectare-m      10^6 ltr
  **************************     ---------     ---------
  Dry Weather Inflow .......         0.616         6.165
  Wet Weather Inflow .......         4.667        46.670
  Groundwater Inflow .......         0.000         0.000
  RDII Inflow ..............         0.000         0.000
  External Inflow ..........         0.102         1.024
  External Outflow .........         2.272        22.718
  Flooding Loss ............         2.576        25.765
  Evaporation Loss .........         0.000         0.000
  Exfiltration Loss ........         0.000         0.000
  Initial Stored Volume ....         0.076         0.761
  Final Stored Volume ......         0.647         6.475
  Continuity Error (%) .....        -0.620
  
  
  *************************
  Highest Continuity Errors
  *************************
  Node HS02004842 (12.71%)
  Node YS02001884 (9.59%)
  Node JK-storage (-2.79%)
  Node HS02004817 (2.32%)
  Node YSB1171 (2.18%)
  
  
  ***************************
  Time-Step Critical Elements
  ***************************
  Link 3 (56.57%)
  Link WS02006252WS02006251 (35.88%)
  Link WS02006238WS02006235 (2.69%)
  
  
  ********************************
  Highest Flow Instability Indexes
  ********************************
  Link YS02163601YS02164001 (46)
  Link YS02163301YS02001633 (46)
  Link YS02001629YS02163301 (44)
  Link YS02001619YS02001622 (42)
  Link YS02164001YS02001641 (42)
  
  
  *************************
  Routing Time Step Summary
  *************************
  Minimum Time Step           :     0.50 sec
  Average Time Step           :     0.72 sec
  Maximum Time Step           :     5.00 sec
  Percent in Steady State     :    -0.00
  Average Iterations per Step :     4.68
  Percent Not Converging      :    19.95
  
  
  ***************************
  Subcatchment Runoff Summary
  ***************************
  
  ------------------------------------------------------------------------------------------------------------------------------
                            Total      Total      Total      Total     Imperv       Perv      Total       Total     Peak  Runoff
                           Precip      Runon       Evap      Infil     Runoff     Runoff     Runoff      Runoff   Runoff   Coeff
  Subcatchment                 mm         mm         mm         mm         mm         mm         mm    10^6 ltr      LPS
  ------------------------------------------------------------------------------------------------------------------------------
  sub0                      16.73       0.00       0.00       0.97      14.29       0.20      14.50        0.01     3.66   0.867
  sub1                      16.73       0.00       0.00       1.58      13.63       0.26      13.89        0.09    24.51   0.830
  sub2                      16.73       0.00       0.00       5.80       9.63       0.39      10.02        0.09    22.91   0.599
  sub3                      16.73       0.00       0.00       5.88       9.59       0.31       9.90        0.22    50.49   0.592
  sub4                      16.73       0.00       0.00       1.65      13.47       0.19      13.66        0.28    60.01   0.817
  sub5                      16.73       0.00       0.00       0.99      14.24       0.18      14.42        0.16    43.61   0.862
  sub7                      16.73       0.00       0.00       1.26      13.97       0.24      14.21        0.05    13.82   0.849
  sub8                      16.73       0.00       0.00       1.27      13.96       0.23      14.19        0.09    25.44   0.848
  sub9                      16.73       0.00       0.00       1.27      13.96       0.23      14.19        0.07    19.02   0.848
  sub10                     16.73       0.00       0.00       1.13      14.10       0.21      14.30        0.16    42.73   0.855
  sub11                     16.73       0.00       0.00       1.12      14.11       0.21      14.33        0.17    47.25   0.857
  sub12                     16.73       0.00       0.00       1.83      13.37       0.35      13.71        0.12    35.87   0.820
  sub14                     16.73       0.00       0.00       1.27      13.95       0.23      14.19        0.14    37.43   0.848
  sub15                     16.73       0.00       0.00       4.53      10.73       0.49      11.22        0.19    51.47   0.671
  sub16                     16.73       0.00       0.00       4.88      10.29       0.64      10.93        0.11    32.57   0.653
  sub17                     16.73       0.00       0.00       4.74      10.44       0.61      11.05        0.09    26.81   0.661
  sub22                     16.73       0.00       0.00       6.60       8.75       0.59       9.34        0.59   160.16   0.558
  sub23                     16.73       0.00       0.00       5.59       9.67       0.60      10.27        0.49   134.74   0.614
  sub60                     16.73       0.00       0.00       1.94      11.65       0.06      11.71        3.55   386.89   0.700
  sub61                     16.73       0.00       0.00       2.75      11.65       0.09      11.73        3.62   476.87   0.701
  sub62                     16.73       0.00       0.00       1.26      12.72       0.07      12.79        3.93   491.27   0.765
  sub63                     16.73       0.00       0.00       4.75      10.14       0.10      10.23        3.10   437.54   0.612
  sub64                     16.73       0.00       0.00       2.45      11.19       0.06      11.26        3.42   367.58   0.673
  sub65                     16.73       0.00       0.00       2.11      11.40       0.06      11.46        3.52   372.98   0.685
  sub66                     16.73       0.00       0.00       4.79       9.55       0.06       9.61        2.95   336.52   0.575
  sub67                     16.73       0.00       0.00       1.24      13.25       0.09      13.35        4.12   605.48   0.798
  sub68                     16.73       0.00       0.00       2.25      12.20       0.10      12.30        3.78   521.64   0.735
  sub69                     16.73       0.00       0.00       2.37      12.50       0.14      12.64        2.95   482.20   0.755
  sub70                     16.73      12.90       0.00       8.98      17.16       1.09      18.25        4.18   460.88   0.616
  sub71                     16.73       0.00       0.00       1.27      12.46       0.07      12.53        2.96   345.19   0.749
  sub72                     16.73       0.00       0.00       1.14      10.39       0.03      10.43        2.12   185.81   0.623
  sub73                     16.73      17.77       0.00       9.78      19.72       1.38      21.10        4.96   482.28   0.612
  sub74                     16.73       0.00       0.00      12.48       3.71       0.07       3.78        1.51   261.10   0.226
  
  
  ******************
  Node Depth Summary
  ******************
  
  ---------------------------------------------------------------------------------
                                 Average  Maximum  Maximum  Time of Max    Reported
                                   Depth    Depth      HGL   Occurrence   Max Depth
  Node                 Type       Meters   Meters   Meters  days hr:min      Meters
  ---------------------------------------------------------------------------------
  WS02001211           JUNCTION     0.65     0.78     5.62     0  04:25        0.78
  WS02001212           JUNCTION     0.39     0.48     5.55     0  04:24        0.48
  WS02001213           JUNCTION     0.63     0.76     5.52     0  02:02        0.76
  WS02003069           JUNCTION     0.46     0.63     5.21     0  02:04        0.63
  WS02003072           JUNCTION     0.53     0.68     5.05     0  02:04        0.68
  WS02003073           JUNCTION     0.32     0.42     4.49     0  02:05        0.42
  WS02003060           JUNCTION     0.41     0.55     5.49     0  02:03        0.55
  WS02003066           JUNCTION     0.25     0.35     5.91     0  02:00        0.35
  WS02003059           JUNCTION     0.69     0.82     5.51     0  02:02        0.82
  WS02003067           JUNCTION     0.61     0.78     6.10     0  01:59        0.78
  WS02004401           JUNCTION     0.74     1.09     7.09     0  01:57        1.09
  WS02004402           JUNCTION     0.77     1.10     7.06     0  01:57        1.10
  WS02004403           JUNCTION     0.79     1.09     7.02     0  01:57        1.09
  WS02004404           JUNCTION     0.86     1.14     6.99     0  01:57        1.14
  WS02004406           JUNCTION     0.86     1.10     6.93     0  01:57        1.10
  WS02004409           JUNCTION     0.55     0.84     6.61     0  01:59        0.84
  WS02004410           JUNCTION     0.57     0.84     6.56     0  01:59        0.84
  WS02004411           JUNCTION     0.58     0.84     6.52     0  01:59        0.84
  WS02004412           JUNCTION     0.59     0.83     6.47     0  01:59        0.83
  WS02004413           JUNCTION     0.75     0.97     6.44     0  01:59        0.97
  WS02004405           JUNCTION     0.85     1.12     6.97     0  01:57        1.12
  WS02006109           JUNCTION     0.83     1.24     7.85     0  01:56        1.23
  WS02006110           JUNCTION     0.81     1.09     7.68     0  01:56        1.09
  WS02006111           JUNCTION     0.26     0.57     7.28     0  01:57        0.57
  WS02006112           JUNCTION     0.92     1.37     7.25     0  01:57        1.36
  WS02006113           JUNCTION     0.38     0.59     7.48     0  01:57        0.59
  WS02006115           JUNCTION     0.64     1.04     7.18     0  01:57        1.04
  WS02006116           JUNCTION     0.72     1.10     7.14     0  01:56        1.10
  WS02006230           JUNCTION     0.83     1.34     8.08     0  01:55        1.33
  WS02006231           JUNCTION     0.56     0.97     8.10     0  01:55        0.96
  WS02006232           JUNCTION     0.70     1.06     8.10     0  02:09        1.06
  WS02006234           JUNCTION     0.62     0.96     8.12     0  02:08        0.95
  WS02006235           JUNCTION     0.65     0.98     8.14     0  02:11        0.96
  WS02006238           JUNCTION     0.67     1.00     8.14     0  02:09        0.99
  WS02006240           JUNCTION     0.57     0.87     8.16     0  02:17        0.87
  WS02006242           JUNCTION     0.62     0.92     8.19     0  02:17        0.91
  WS02006243           JUNCTION     0.50     0.79     8.21     0  02:19        0.79
  WS02006245           JUNCTION     0.47     0.75     8.23     0  02:20        0.75
  WS02006247           JUNCTION     0.49     0.75     8.25     0  02:20        0.75
  WS02006248           JUNCTION     0.43     0.67     8.26     0  02:20        0.67
  WS02006249           JUNCTION     0.45     0.68     8.27     0  02:20        0.67
  WS02006239           JUNCTION     0.63     0.94     8.15     0  02:11        0.94
  WS02006251           JUNCTION     0.44     0.74     8.41     0  02:20        0.73
  WS02006252           JUNCTION     0.37     0.59     8.84     0  02:23        0.59
  WS02006253           JUNCTION     0.47     0.77     8.41     0  02:20        0.76
  WS02006256           JUNCTION     1.10     1.23     8.16     0  02:10        1.23
  WS02004138           JUNCTION     0.15     0.20     7.45     0  00:00        0.19
  WS02004407           JUNCTION     0.25     0.36     6.67     0  01:57        0.36
  WS02006228           JUNCTION     0.84     1.35     8.00     0  01:56        1.34
  WS02006229           JUNCTION     0.83     1.38     8.07     0  01:56        1.37
  WS02006280           JUNCTION     0.08     0.25     8.52     0  01:55        0.25
  WS02006284           JUNCTION     0.39     0.64     9.04     0  01:55        0.64
  WS02006287           JUNCTION     0.12     0.38     9.33     0  01:54        0.38
  WSF200               JUNCTION     0.25     0.39     5.62     0  02:03        0.39
  HS02004901           JUNCTION     0.14     0.36    10.18     0  01:52        0.36
  HS02004881           JUNCTION     0.01     0.05     9.08     0  01:55        0.05
  HS02004876           JUNCTION     0.05     0.16     9.19     0  01:55        0.16
  HS02004870           JUNCTION     0.02     0.09     9.38     0  01:55        0.09
  HS02004862           JUNCTION     0.03     0.11     9.49     0  01:55        0.11
  HS02004856           JUNCTION     0.09     0.15     9.58     0  01:55        0.15
  HS02004852           JUNCTION     0.02     0.07     9.59     0  01:55        0.07
  HS02004848           JUNCTION     0.02     0.07     9.67     0  01:55        0.07
  HS02004842           JUNCTION     0.34     0.40     9.67     0  01:55        0.40
  HS02004837           JUNCTION     0.03     0.09     9.67     0  01:55        0.09
  HS02004830           JUNCTION     0.05     0.10     9.57     0  01:56        0.10
  HS02004824           JUNCTION     0.03     0.12     9.53     0  01:55        0.12
  HS02004817           JUNCTION     0.46     0.69     9.53     0  01:55        0.69
  HS02004807           JUNCTION     0.15     0.36     9.53     0  01:55        0.36
  HS02004802           JUNCTION     0.18     0.39     9.52     0  01:55        0.39
  HS02004799           JUNCTION     0.15     0.45     9.66     0  01:53        0.45
  HS02004792           JUNCTION     0.05     0.20     9.73     0  01:52        0.20
  HS02004788           JUNCTION     0.04     0.15    10.05     0  01:53        0.15
  HS02004785           JUNCTION     0.06     0.23    10.14     0  01:52        0.23
  HS02004777           JUNCTION     0.17     0.37    10.17     0  01:52        0.37
  HS02004770           JUNCTION     0.14     0.35    10.18     0  01:52        0.35
  HS02004480           JUNCTION     0.10     0.37     9.61     0  01:53        0.37
  HS02004479           JUNCTION     0.14     0.41     9.61     0  01:53        0.41
  HS02004478           JUNCTION     0.08     0.27     9.50     0  01:54        0.27
  YS02001745           JUNCTION     0.78     0.93     8.45     0  03:01        0.93
  YS02001748           JUNCTION     1.19     1.37     8.45     0  03:00        1.36
  YS02001751           JUNCTION     1.37     1.71     8.59     0  01:48        1.55
  YS02001754           JUNCTION     1.63     1.84     8.45     0  02:59        1.82
  YS02001762           JUNCTION     1.83     2.04     8.44     0  02:51        2.03
  YS02001765           JUNCTION     1.78     1.99     8.44     0  02:59        1.97
  YS02001767           JUNCTION     1.75     1.95     8.44     0  02:54        1.93
  YS02001770           JUNCTION     1.74     1.93     8.42     0  02:59        1.92
  YS02001774           JUNCTION     1.81     1.99     8.41     0  01:47        1.98
  YS02001779           JUNCTION     1.55     1.68     8.37     0  01:47        1.68
  YS02001882           JUNCTION     0.73     1.68     8.39     0  01:57        1.62
  YS02001884           JUNCTION     0.82     1.77     8.38     0  01:57        1.72
  YS02001759           JUNCTION     1.86     2.08     8.45     0  03:00        2.07
  YS02001887           JUNCTION     0.90     1.82     8.36     0  01:57        1.81
  YS02001890           JUNCTION     0.93     1.81     8.32     0  01:57        1.81
  YS02001898           JUNCTION     0.70     1.58     8.31     0  01:57        1.56
  YS02001901           JUNCTION     0.81     1.69     8.29     0  01:57        1.67
  YS02001904           JUNCTION     0.79     1.64     8.27     0  01:57        1.63
  YS02001907           JUNCTION     1.12     1.96     8.25     0  01:57        1.96
  YS02001910           JUNCTION     0.91     1.95     8.45     0  01:58        1.85
  YS02001915           JUNCTION     0.71     1.90     8.62     0  01:57        1.72
  YS02001918           JUNCTION     0.45     1.81     8.88     0  01:57        1.53
  YS02001619           JUNCTION     1.34     1.61     8.54     0  01:47        1.61
  YS02001629           JUNCTION     1.69     1.85     8.40     0  01:47        1.84
  YS02001641           JUNCTION     1.79     1.94     8.37     0  02:17        1.93
  YS02001644           JUNCTION     1.79     1.92     8.35     0  01:51        1.92
  YS02001652           JUNCTION     1.64     2.16     8.76     0  02:06        2.03
  YS02001655           JUNCTION     1.40     2.20     9.05     0  02:08        1.97
  YS02001920           JUNCTION     0.55     1.89     8.89     0  01:58        1.68
  YS02001923           JUNCTION     0.37     1.80     9.06     0  01:58        1.52
  YS02001926           JUNCTION     0.38     1.67     9.11     0  01:58        1.33
  YS02001929           JUNCTION     0.24     1.29     8.98     0  01:59        1.05
  YS02001658           JUNCTION     1.13     2.30     9.44     0  02:10        1.88
  YS02001661           JUNCTION     0.89     2.46     9.86     0  02:10        1.82
  YS02001664           JUNCTION     0.40     0.57     8.49     0  03:55        0.56
  YS02001622           JUNCTION     1.36     1.62     8.52     0  01:47        1.62
  YS02001633           JUNCTION     1.78     1.95     8.40     0  01:53        1.94
  YS02001649           JUNCTION     1.84     2.05     8.44     0  02:03        2.05
  YS02001757           JUNCTION     1.96     2.18     8.44     0  03:00        2.17
  YS02001895           JUNCTION     0.69     1.57     8.32     0  01:57        1.57
  YS02001625           JUNCTION     1.64     1.78     8.38     0  01:46        1.78
  YS02163301           JUNCTION     1.72     1.88     8.40     0  01:47        1.88
  YS02163601           JUNCTION     1.83     1.99     8.39     0  02:09        1.98
  YS02164001           JUNCTION     1.77     1.92     8.38     0  01:53        1.91
  YS02001647           JUNCTION     1.62     1.80     8.41     0  02:04        1.80
  YSB1154              JUNCTION     0.28     0.56     9.62     0  01:53        0.56
  YSB6556              JUNCTION     0.17     0.44     9.61     0  01:53        0.44
  YSB1174              JUNCTION     0.23     0.50     9.61     0  01:53        0.50
  YSB1171              JUNCTION     0.43     0.71     9.61     0  01:53        0.71
  YS02006553           JUNCTION     1.12     2.17     8.45     0  01:57        1.96
  YS02006561           JUNCTION     0.45     1.89     8.55     0  01:57        1.08
  YS02006556           JUNCTION     1.08     2.38     8.69     0  01:57        1.93
  YS02006558           JUNCTION     1.12     2.48     8.75     0  01:57        1.97
  YS02001783           JUNCTION     0.70     2.26     8.40     0  01:57        1.47
  YS02001784           JUNCTION     0.71     2.20     8.27     0  01:57        1.42
  YS02001786           JUNCTION     0.63     2.20     8.23     0  01:57        1.26
  YS02001788           JUNCTION     0.56     2.28     8.26     0  01:57        1.13
  YS02001790           JUNCTION     0.69     1.96     7.60     0  01:57        1.29
  YS02001791           JUNCTION     0.67     2.02     7.49     0  01:56        1.27
  YS02001793           JUNCTION     0.97     2.44     7.27     0  05:24        1.80
  WS02004139           JUNCTION     0.60     0.72     5.63     0  04:25        0.72
  WSC                  OUTFALL      0.32     0.42     1.09     0  02:05        0.42
  3                    OUTFALL      0.12     0.22     6.22     0  02:10        0.22
  4                    OUTFALL      0.04     0.18     7.18     0  02:20        0.17
  5                    OUTFALL      0.00     0.00     5.00     0  00:00        0.00
  JK-storage           STORAGE      3.93     5.80     6.60     0  01:57        5.80
  CC-storage           STORAGE      1.19     1.43     8.43     0  03:05        1.43
  XR-storage           STORAGE      7.29     7.72     5.72     0  02:05        7.72
  
  
  *******************
  Node Inflow Summary
  *******************
  
  -------------------------------------------------------------------------------------------------
                                  Maximum  Maximum                  Lateral       Total        Flow
                                  Lateral    Total  Time of Max      Inflow      Inflow     Balance
                                   Inflow   Inflow   Occurrence      Volume      Volume       Error
  Node                 Type           LPS      LPS  days hr:min    10^6 ltr    10^6 ltr     Percent
  -------------------------------------------------------------------------------------------------
  WS02001211           JUNCTION      7.35   388.42     0  04:30       0.207         6.6       0.322
  WS02001212           JUNCTION      0.00   389.34     0  04:30           0        6.58       0.208
  WS02001213           JUNCTION      0.00   390.33     0  04:30           0        6.56       0.305
  WS02003069           JUNCTION      0.32  1069.75     0  02:03     0.00902        16.3       0.157
  WS02003072           JUNCTION      0.00  1069.61     0  02:04           0        16.3       0.201
  WS02003073           JUNCTION      1.82  1071.75     0  02:04      0.0514        16.3       0.220
  WS02003060           JUNCTION     16.53  1068.93     0  02:03       0.466        16.4       0.150
  WS02003066           JUNCTION      0.00   788.84     0  02:00           0        9.39       0.052
  WS02003059           JUNCTION      0.00   392.06     0  04:30           0        6.54       0.464
  WS02003067           JUNCTION      0.00   788.82     0  02:00           0         9.4       0.107
  WS02004401           JUNCTION      0.00   790.68     0  01:57           0        9.65       0.235
  WS02004402           JUNCTION      0.00   790.68     0  01:57           0        9.63       0.221
  WS02004403           JUNCTION      0.00   790.65     0  01:57           0        9.61       0.200
  WS02004404           JUNCTION      0.16   790.82     0  01:57     0.00457        9.59       0.149
  WS02004406           JUNCTION      0.00   790.88     0  01:57           0        9.56       0.363
  WS02004409           JUNCTION      0.00   790.78     0  01:57           0        9.52       0.192
  WS02004410           JUNCTION      0.00   789.47     0  01:58           0         9.5       0.215
  WS02004411           JUNCTION      0.00   788.95     0  01:59           0        9.48       0.219
  WS02004412           JUNCTION      0.00   788.82     0  01:59           0        9.46       0.234
  WS02004413           JUNCTION      0.00   788.80     0  01:59           0        9.44       0.341
  WS02004405           JUNCTION      0.04   790.87     0  01:57     0.00107        9.58       0.223
  WS02006109           JUNCTION      1.23   767.46     0  01:55      0.0347        9.69       0.222
  WS02006110           JUNCTION      0.00   767.49     0  01:55           0        9.66       0.210
  WS02006111           JUNCTION      0.00   765.68     0  01:57           0        9.63       0.050
  WS02006112           JUNCTION     26.81   790.59     0  01:57      0.0948        9.72       0.308
  WS02006113           JUNCTION      0.00   767.41     0  01:55           0        9.64       0.106
  WS02006115           JUNCTION      0.00   790.51     0  01:57           0        9.69       0.223
  WS02006116           JUNCTION      0.00   790.65     0  01:57           0        9.67       0.211
  WS02006230           JUNCTION     10.28   402.54     0  04:50        0.29           7       0.184
  WS02006231           JUNCTION      0.00   393.71     0  04:43           0        6.72       0.189
  WS02006232           JUNCTION      0.00   394.02     0  04:43           0        6.73       0.245
  WS02006234           JUNCTION      0.00   397.24     0  04:43           0        6.74       0.124
  WS02006235           JUNCTION      0.00   398.27     0  04:43           0        6.79       0.165
  WS02006238           JUNCTION      0.00   344.60     0  05:20           0        4.75       0.178
  WS02006240           JUNCTION      0.00   338.66     0  05:20           0        4.75       0.259
  WS02006242           JUNCTION      0.00   335.84     0  05:21           0        4.75       0.316
  WS02006243           JUNCTION      0.00   333.79     0  07:31           0        4.74      -0.147
  WS02006245           JUNCTION      0.00   341.11     0  04:41           0        4.75       0.264
  WS02006247           JUNCTION      0.00   348.52     0  04:41           0        4.75       0.140
  WS02006248           JUNCTION      0.00   354.63     0  04:40           0        4.76       0.076
  WS02006249           JUNCTION      0.00   488.93     0  02:20           0        5.51       0.204
  WS02006239           JUNCTION      0.00   342.61     0  05:20           0        4.75       0.263
  WS02006251           JUNCTION      0.08   488.62     0  02:20     0.00217        5.56       0.158
  WS02006252           JUNCTION      0.00   400.00     0  02:20           0        4.98       0.008
  WS02006253           JUNCTION      3.66   142.87     0  01:54      0.0117       0.582       0.584
  WS02006256           JUNCTION      0.00   600.00     0  02:10           0        7.74       0.042
  WS02004138           JUNCTION      0.00   380.00     0  00:00           0        6.41       0.067
  WS02004407           JUNCTION      0.00   790.86     0  01:57           0        9.52       0.085
  WS02006228           JUNCTION      0.00   766.27     0  01:55           0        9.67       0.152
  WS02006229           JUNCTION      0.00   767.30     0  01:55           0        9.68       0.141
  WS02006280           JUNCTION      0.00   656.04     0  01:55           0         2.7       0.002
  WS02006284           JUNCTION      0.10   655.96     0  01:55      0.0027         2.7       0.039
  WS02006287           JUNCTION      0.00   655.81     0  01:54           0         2.7       0.027
  WSF200               JUNCTION      0.00   788.71     0  02:00           0        9.39       0.052
  HS02004901           JUNCTION     32.57    32.57     0  01:50       0.114       0.115       1.559
  HS02004881           JUNCTION     13.82   139.59     0  01:54      0.0479       0.529       0.112
  HS02004876           JUNCTION     24.51   126.37     0  01:54      0.0923       0.482       0.114
  HS02004870           JUNCTION     25.44   102.13     0  01:54      0.0907        0.39       0.027
  HS02004862           JUNCTION     23.11    77.53     0  01:55       0.099       0.299       0.057
  HS02004856           JUNCTION     19.02    54.51     0  01:55      0.0682       0.202       0.718
  HS02004852           JUNCTION      0.00    36.10     0  01:55           0       0.134       0.042
  HS02004848           JUNCTION     50.49    50.49     0  01:57       0.223       0.223       0.020
  HS02004842           JUNCTION      0.00    15.55     0  02:06           0       0.102      14.562
  HS02004837           JUNCTION     49.08    62.50     0  01:55       0.337       0.426       0.191
  HS02004830           JUNCTION      0.15    62.61     0  01:55     0.00423       0.416       0.298
  HS02004824           JUNCTION     60.06   122.21     0  01:58       0.286       0.702       0.077
  HS02004817           JUNCTION      0.60   124.03     0  01:59      0.0169       0.718       2.378
  HS02004807           JUNCTION     47.25   168.28     0  01:57       0.166       0.868       0.499
  HS02004802           JUNCTION      0.00   169.24     0  01:58           0       0.865       0.462
  HS02004799           JUNCTION     37.43   414.53     0  01:52       0.135        1.57       0.166
  HS02004792           JUNCTION    160.44   377.30     0  01:52       0.598        1.44       0.028
  HS02004788           JUNCTION     53.14   218.54     0  01:52        0.24       0.839       0.046
  HS02004785           JUNCTION      0.15   165.59     0  01:52     0.00423       0.601       0.082
  HS02004777           JUNCTION      0.03   165.80     0  01:51    0.000846       0.601       0.872
  HS02004770           JUNCTION    134.74   166.64     0  01:51        0.49       0.602       0.515
  HS02004480           JUNCTION      0.00   492.22     0  01:53           0        1.85       0.065
  HS02004479           JUNCTION      0.00    78.00     0  01:53           0       0.292       0.252
  HS02004478           JUNCTION      0.00   655.76     0  01:54           0         2.7       0.013
  YS02001745           JUNCTION    386.89   386.89     0  02:16        3.55        3.55       0.314
  YS02001748           JUNCTION      0.04   396.07     0  02:15     0.00127        3.54       0.650
  YS02001751           JUNCTION      0.01   395.88     0  02:16     0.00031        3.52       0.683
  YS02001754           JUNCTION      0.26   395.96     0  02:16     0.00733         3.5       0.702
  YS02001762           JUNCTION      0.00   430.41     0  02:02           0        1.99       1.067
  YS02001765           JUNCTION      0.00   430.25     0  02:02           0        1.99       1.234
  YS02001767           JUNCTION      0.54   430.25     0  02:02      0.0151        2.01       1.802
  YS02001770           JUNCTION    491.42   604.01     0  03:04        3.94        4.42       0.713
  YS02001774           JUNCTION      0.00   604.02     0  03:04           0        2.89       0.867
  YS02001779           JUNCTION      0.01   604.14     0  03:03    0.000141        2.86       0.540
  YS02001882           JUNCTION      0.00    17.41     0  01:53           0      0.0283       9.472
  YS02001884           JUNCTION      0.00    45.83     0  01:52           0      0.0646      10.604
  YS02001759           JUNCTION    476.91   854.44     0  02:03        3.62        5.09       0.450
  YS02001887           JUNCTION    605.93   606.14     0  02:15        4.13        4.16       0.206
  YS02001890           JUNCTION      0.00   606.21     0  02:16           0        4.11       0.232
  YS02001898           JUNCTION      0.00   521.17     0  01:58           0           4       0.069
  YS02001901           JUNCTION      0.00   520.76     0  01:58           0           4       0.189
  YS02001904           JUNCTION      0.00   521.21     0  01:58           0        3.99       0.165
  YS02001907           JUNCTION      0.00  1187.01     0  01:59           0        9.13       0.263
  YS02001910           JUNCTION      0.00   669.85     0  01:59           0        5.15       0.223
  YS02001915           JUNCTION    345.21   669.84     0  01:59        2.96         5.2       0.126
  YS02001918           JUNCTION      0.00   391.70     0  01:59           0        2.27       0.092
  YS02001619           JUNCTION    336.52   336.52     0  02:16        2.95        2.95       0.411
  YS02001629           JUNCTION      0.00   249.49     0  01:47           0        1.45       1.989
  YS02001641           JUNCTION      0.00   432.28     0  01:52           0        4.86       0.429
  YS02001644           JUNCTION    367.62  1413.10     0  03:01        3.42        12.1       0.214
  YS02001652           JUNCTION      0.00   475.74     0  02:16           0        3.05       0.748
  YS02001655           JUNCTION      0.15   475.60     0  02:16     0.00434        3.07       0.828
  YS02001920           JUNCTION      2.87   391.74     0  01:59      0.0809        2.25       0.142
  YS02001923           JUNCTION      0.04   314.93     0  02:00     0.00106        2.15       0.044
  YS02001926           JUNCTION      0.05   270.80     0  01:58     0.00147        2.14       0.151
  YS02001929           JUNCTION    185.81   195.77     0  01:58        2.12        2.13       0.028
  YS02001658           JUNCTION      0.00   508.05     0  02:15           0        3.09       0.779
  YS02001661           JUNCTION      0.00   766.74     0  02:03           0        3.77      -0.093
  YS02001664           JUNCTION    437.54   437.54     0  02:16         3.1        3.78       0.169
  YS02001622           JUNCTION      0.00   336.62     0  02:16           0        2.94       1.090
  YS02001633           JUNCTION    373.18   432.72     0  01:52        3.53        4.93       0.648
  YS02001649           JUNCTION      0.00  1018.38     0  01:57           0         6.5       0.568
  YS02001757           JUNCTION      0.00  2124.53     0  02:01           0        10.7       0.866
  YS02001895           JUNCTION      0.00   520.95     0  01:58           0           4       0.137
  YS02001625           JUNCTION      0.00   336.58     0  02:16           0        2.91       1.362
  YS02163301           JUNCTION      0.00   230.84     0  01:48           0        1.45       1.670
  YS02163601           JUNCTION      0.11   432.68     0  01:52      0.0031        4.88       0.615
  YS02164001           JUNCTION      0.00   432.60     0  01:52           0        4.86       0.407
  YS02001647           JUNCTION      0.00   700.42     0  03:05           0        5.46       0.519
  YSB1154              JUNCTION     43.61    43.61     0  01:53       0.163       0.164       0.888
  YSB6556              JUNCTION      0.00    43.64     0  01:53           0       0.165       0.765
  YSB1174              JUNCTION     35.87    35.87     0  01:50        0.12        0.12       1.078
  YSB1171              JUNCTION      0.00    78.03     0  01:52           0       0.291       2.227
  YS02006553           JUNCTION      0.00   682.99     0  03:21           0        7.14       0.216
  YS02006561           JUNCTION      0.00  1096.06     0  01:57           0        10.9       0.007
  YS02006556           JUNCTION      0.00   682.98     0  03:22           0        7.15       0.161
  YS02006558           JUNCTION    522.52  1096.31     0  01:57        3.81        10.9       0.050
  YS02001783           JUNCTION      0.00  1079.09     0  01:57           0        10.9       0.024
  YS02001784           JUNCTION      1.06  1080.10     0  01:57      0.0299        10.9       0.037
  YS02001786           JUNCTION      0.06  1079.87     0  01:57     0.00159        10.9       0.034
  YS02001788           JUNCTION      0.07  1073.90     0  01:57       0.002        10.9       0.019
  YS02001790           JUNCTION      0.15  1054.61     0  01:56     0.00437        10.9       0.025
  YS02001791           JUNCTION      0.00  1085.07     0  01:56           0        10.9       0.008
  YS02001793           JUNCTION      0.00  1022.50     0  01:55           0        10.9       0.002
  WS02004139           JUNCTION      0.32   393.28     0  00:00     0.00905        6.42       0.427
  WSC                  OUTFALL       0.00  1072.25     0  02:05           0        16.3       0.000
  3                    OUTFALL       0.00   563.76     0  02:10           0        5.67       0.000
  4                    OUTFALL       0.00   269.57     0  02:20           0       0.745       0.000
  5                    OUTFALL       0.00     0.00     0  00:00           0           0       0.000 ltr
  JK-storage           STORAGE       0.00   998.49     0  01:57           0        11.1      -2.716
  CC-storage           STORAGE       0.00  2124.53     0  02:01           0        8.74       0.735
  XR-storage           STORAGE     844.69   844.69     0  03:01        12.1        12.7       0.000
  
  
  **********************
  Node Surcharge Summary
  **********************
  
  Surcharging occurs when water rises above the top of the highest conduit.
  ---------------------------------------------------------------------
                                               Max. Height   Min. Depth
                                   Hours       Above Crown    Below Rim
  Node                 Type      Surcharged         Meters       Meters
  ---------------------------------------------------------------------
  WS02004401           JUNCTION        0.54          0.094        1.566
  WS02004402           JUNCTION        0.58          0.098        1.642
  WS02004403           JUNCTION        0.59          0.089        1.941
  WS02004404           JUNCTION        0.88          0.143        2.637
  WS02004406           JUNCTION        0.72          0.096        2.354
  WS02004405           JUNCTION        0.79          0.125        2.675
  WS02006109           JUNCTION        2.79          0.415        1.405
  WS02006110           JUNCTION        1.33          0.180        1.670
  WS02006112           JUNCTION        1.41          0.366        1.314
  WS02006115           JUNCTION        0.31          0.033        2.217
  WS02006116           JUNCTION        0.38          0.042        2.248
  WS02006230           JUNCTION        0.82          0.255        1.315
  WS02006231           JUNCTION        1.16          0.265        1.265
  WS02006232           JUNCTION        3.02          0.365        1.115
  WS02006234           JUNCTION        1.20          0.243        0.997
  WS02006235           JUNCTION        1.87          0.265        1.025
  WS02006238           JUNCTION        2.34          0.277        1.153
  WS02006240           JUNCTION        1.14          0.158        1.232
  WS02006242           JUNCTION        1.76          0.193        0.627
  WS02006243           JUNCTION        0.64          0.078        0.692
  WS02006245           JUNCTION        0.30          0.036        0.814
  WS02006247           JUNCTION        0.32          0.036        0.724
  WS02006239           JUNCTION        1.42          0.203        1.087
  WS02006252           JUNCTION        2.73          0.193        0.907
  WS02006228           JUNCTION        2.65          0.516        1.684
  YS02001748           JUNCTION        5.98          0.295        0.895
  YS02001751           JUNCTION        6.02          0.707        0.493
  YS02001754           JUNCTION        6.05          0.788        0.362
  YS02001762           JUNCTION        6.08          1.043        0.107
  YS02001765           JUNCTION        6.08          0.994        0.106
  YS02001767           JUNCTION        6.07          0.948        0.082
  YS02001770           JUNCTION        6.07          0.899        0.021
  YS02001774           JUNCTION        6.08          0.991        0.059
  YS02001779           JUNCTION        6.04          0.680        0.000
  YS02001882           JUNCTION        1.76          0.678        0.152
  YS02001884           JUNCTION        1.79          0.705        0.165
  YS02001759           JUNCTION        6.09          1.082        0.128
  YS02001887           JUNCTION        1.87          0.772        0.178
  YS02001890           JUNCTION        1.90          0.760        0.000
  YS02001898           JUNCTION        1.71          0.547        0.193
  YS02001901           JUNCTION        1.84          0.685        0.185
  YS02001904           JUNCTION        1.81          0.645        0.205
  YS02001907           JUNCTION        2.26          0.950        0.000
  YS02001910           JUNCTION        1.94          0.948        0.152
  YS02001915           JUNCTION        1.75          0.901        0.099
  YS02001918           JUNCTION        1.51          0.810        0.000
  YS02001619           JUNCTION        6.02          0.610        0.000
  YS02001629           JUNCTION        6.02          0.470        0.000
  YS02001641           JUNCTION        6.08          0.935        0.165
  YS02001644           JUNCTION        6.08          0.920        0.000
  YS02001652           JUNCTION        6.05          1.130        0.000
  YS02001655           JUNCTION        6.02          1.200        0.000
  YS02001920           JUNCTION        1.54          0.887        0.253
  YS02001923           JUNCTION        0.01          0.594        0.226
  YS02001926           JUNCTION        0.01          0.670        0.230
  YS02001929           JUNCTION        0.01          0.291        0.489
  YS02001658           JUNCTION        5.99          1.300        0.000
  YS02001661           JUNCTION        0.32          1.390        0.000
  YS02001622           JUNCTION        6.03          0.620        0.000
  YS02001633           JUNCTION        6.08          0.929        0.131
  YS02001649           JUNCTION        6.08          1.050        0.000
  YS02001757           JUNCTION        6.12          1.183        0.027
  YS02001895           JUNCTION        1.73          0.574        0.176
  YS02001625           JUNCTION        6.05          0.780        0.000
  YS02163301           JUNCTION        6.07          0.885        0.145
  YS02163601           JUNCTION        6.09          0.990        0.090
  YS02164001           JUNCTION        6.08          0.917        0.183
  YS02001647           JUNCTION        6.05          0.803        0.097
  YS02006553           JUNCTION        2.31          1.168        0.022
  YS02006561           JUNCTION        1.61          1.091        0.059
  YS02006556           JUNCTION        2.11          1.338        0.012
  YS02006558           JUNCTION        2.09          1.381        0.019
  YS02001783           JUNCTION        2.12          1.463        0.137
  YS02001784           JUNCTION        2.21          1.401        0.089
  YS02001786           JUNCTION        2.06          1.402        0.028
  YS02001788           JUNCTION        2.04          1.480        0.000
  YS02001790           JUNCTION        2.83          1.157        0.000
  YS02001791           JUNCTION        2.90          1.216        0.704
  YS02001793           JUNCTION        3.21          1.437        1.163
  
  
  *********************
  Node Flooding Summary
  *********************
  
  Flooding refers to all water that overflows a node, whether it ponds or not.
  --------------------------------------------------------------------------
                                                             Total   Maximum
                                 Maximum   Time of Max       Flood    Ponded
                        Hours       Rate    Occurrence      Volume     Depth
  Node                 Flooded       LPS   days hr:min    10^6 ltr    Meters
  --------------------------------------------------------------------------
  YS02001779              3.37    604.09      0  03:04       2.844     0.000
  YS02001890              0.56     89.74      0  02:16       0.100     0.000
  YS02001907              1.38    668.51      0  01:59       1.977     0.000
  YS02001918              0.01     65.13      0  01:57       0.000     0.000
  YS02001619              0.01     62.39      0  01:47       0.000     0.000
  YS02001629              0.01    195.88      0  01:47       0.001     0.000
  YS02001644              5.26   1413.01      0  03:01      10.392     0.000
  YS02001652              0.01     15.93      0  02:11       0.000     0.000
  YS02001655              0.01     19.51      0  02:08       0.000     0.000
  YS02001658              0.01     12.37      0  02:11       0.000     0.000
  YS02001661              0.01    147.89      0  02:11       0.000     0.000
  YS02001622              0.01     70.68      0  01:47       0.000     0.000
  YS02001649              0.12     43.76      0  02:11       0.005     0.000
  YS02001625              2.03    325.79      0  02:16       1.437     0.000
  YS02001788              0.01    131.87      0  01:57       0.000     0.000
  YS02001790              0.01    205.14      0  01:57       0.000     0.000
  JK-storage              2.66    698.01      0  01:57       3.640     0.000
  XR-storage              5.26    632.50      0  02:50       5.369     0.000
  
  
  **********************
  Storage Volume Summary
  **********************
  
  --------------------------------------------------------------------------------------------------
                         Average     Avg  Evap Exfil       Maximum     Max    Time of Max    Maximum
                          Volume    Pcnt  Pcnt  Pcnt        Volume    Pcnt     Occurrence    Outflow
  Storage Unit           1000 m3    Full  Loss  Loss       1000 m3    Full    days hr:min        LPS
  --------------------------------------------------------------------------------------------------
  JK-storage               0.198      68     0     0         0.291     100       0  01:57     600.00
  CC-storage               3.308      21     0     0         3.972      25       0  03:05     400.00
  XR-storage               0.875      94     0     0         0.926     100       0  02:05     380.00
  
  
  ***********************
  Outfall Loading Summary
  ***********************
  
  -----------------------------------------------------------
                         Flow       Avg       Max       Total
                         Freq      Flow      Flow      Volume
  Outfall Node           Pcnt       LPS       LPS    10^6 ltr
  -----------------------------------------------------------
  WSC                   99.99    645.84   1072.25      16.303
  3                     91.01    278.68    563.76       5.669
  4                     47.00     72.10    269.57       0.745
  5                      0.00      0.00      0.00       0.000
  -----------------------------------------------------------
  System                59.50    996.62   1838.75      22.718
  
  
  ********************
  Link Flow Summary
  ********************
  
  -----------------------------------------------------------------------------
                                 Maximum  Time of Max   Maximum    Max/    Max/
                                  |Flow|   Occurrence   |Veloc|    Full    Full
  Link                 Type          LPS  days hr:min     m/sec    Flow   Depth
  -----------------------------------------------------------------------------
  WS02003066WSF200     CONDUIT    788.71     0  02:00      3.00    0.13    0.29
  WS02006287WS02006284 CONDUIT    655.86     0  01:55      2.36    0.30    0.38
  WS02006284WS02006280 CONDUIT    656.04     0  01:55      2.59    0.27    0.36
  WS02006280WS02006229 CONDUIT    656.05     0  01:55      4.21    0.14    0.25
  WS02006229WS02006228 CONDUIT    766.27     0  01:55      1.52    2.54    1.00
  WS02006256WS02006235 CONDUIT    166.25     0  00:01      2.58    1.76    1.00
  WS02006253WS02006251 CONDUIT    143.06     0  01:57      0.72    0.43    1.00
  WS02006252WS02006251 CONDUIT    400.62     0  05:18      3.19    1.47    1.00
  WS02006251WS02006249 CONDUIT    488.93     0  02:20      1.28    1.41    0.98
  WS02006249WS02006248 CONDUIT    354.63     0  04:40      1.16    1.94    0.95
  WS02006248WS02006247 CONDUIT    348.52     0  04:41      1.12    0.76    0.98
  WS02006247WS02006245 CONDUIT    341.11     0  04:41      1.08    2.70    1.00
  WS02006245WS02006243 CONDUIT    333.79     0  07:31      1.09    0.99    1.00
  WS02006243WS02006242 CONDUIT    335.84     0  05:21      0.95    0.72    1.00
  WS02006242WS02006240 CONDUIT    338.66     0  05:20      0.90    1.35    1.00
  WS02006240WS02006239 CONDUIT    342.61     0  05:20      0.95    1.08    1.00
  WS02006239WS02006238 CONDUIT    344.60     0  05:20      0.91    1.10    1.00
  WS02006238WS02006235 CONDUIT    344.87     0  05:20      1.25    0.77    1.00
  WS02006235WS02006234 CONDUIT    397.24     0  04:43      1.05    4.19    1.00
  WS02006234WS02006232 CONDUIT    394.02     0  04:43      1.13    0.80    1.00
  WS02006232WS02006231 CONDUIT    393.71     0  04:43      1.08    0.82    1.00
  WS02006231WS02006230 CONDUIT    392.26     0  04:50      1.36    5.95    1.00
  WS02006230WS02006229 CONDUIT    402.57     0  04:50      1.05    8.96    1.00
  WS02006228WS02006109 CONDUIT    766.23     0  01:55      1.52    3.35    1.00
  WS02006116WS02004401 CONDUIT    790.68     0  01:57      1.01    1.09    1.00
  WS02006115WS02006116 CONDUIT    790.65     0  01:57      1.01    1.01    1.00
  WS02006113WS02006111 CONDUIT    765.68     0  01:57      2.61    0.92    0.73
  WS02006112WS02006115 CONDUIT    790.51     0  01:57      1.01    0.47    1.00
  WS02006111WS02006112 CONDUIT    766.61     0  01:57      1.72    0.36    0.85
  WS02006110WS02006113 CONDUIT    767.41     0  01:55      1.66    0.70    0.87
  WS02006109WS02006110 CONDUIT    767.49     0  01:55      1.53    1.48    1.00
  WS02004411WS02004412 CONDUIT    788.82     0  01:59      1.13    1.12    0.83
  WS02004401WS02004402 CONDUIT    790.68     0  01:57      1.01    0.95    1.00
  WS02004413WS02003067 CONDUIT    788.82     0  02:00      1.38    0.34    0.68
  WS02004412WS02004413 CONDUIT    788.80     0  01:59      1.06    0.53    0.90
  WS02004410WS02004411 CONDUIT    788.95     0  01:59      1.12    1.08    0.84
  WS02004409WS02004410 CONDUIT    789.47     0  01:58      1.12    1.02    0.84
  WS02004407WS02004409 CONDUIT    790.78     0  01:57      1.61    0.28    0.60
  WS02004406WS02004407 CONDUIT    790.86     0  01:57      1.39    0.35    0.68
  WS02004405WS02004406 CONDUIT    790.88     0  01:57      1.01    1.56    1.00
  WS02004404WS02004405 CONDUIT    790.83     0  01:57      1.01    7.75    1.00
  WS02004403WS02004404 CONDUIT    790.66     0  01:57      1.01    0.57    1.00
  WS02004402WS02004403 CONDUIT    790.65     0  01:57      1.01    1.14    1.00
  WS02004139WS02001211 CONDUIT    381.08     0  04:30      0.90    0.48    0.58
  WS02004138WS02004139 CONDUIT    392.96     0  00:00      3.64    0.08    0.43
  WS02003067WS02003066 CONDUIT    788.84     0  02:00      1.50    0.25    0.47
  WS02001213WS02003059 CONDUIT    392.06     0  04:30      0.90    0.65    0.78
  WS02001212WS02001213 CONDUIT    390.33     0  04:30      1.31    0.60    0.46
  WS02001211WS02001212 CONDUIT    389.34     0  04:30      0.78    0.30    0.63
  WS02003072WS02003073 CONDUIT   1069.93     0  02:04      1.81    2.31    0.52
  WS02003069WS02003072 CONDUIT   1069.61     0  02:04      1.69    0.51    0.55
  WS02003060WS02003069 CONDUIT   1069.43     0  02:03      1.92    0.42    0.49
  WS02003059WS02003060 CONDUIT    394.46     0  04:31      0.93    0.26    0.69
  HS02004901HS02004770 CONDUIT     31.96     0  01:52      0.09    0.12    0.51
  HS02004876HS02004881 CONDUIT    126.38     0  01:55      1.20    1.34    0.15
  HS02004870HS02004876 CONDUIT    102.10     0  01:55      0.82    0.07    0.18
  HS02004842HS02004848 CONDUIT     15.55     0  02:06      0.07    0.01    0.33
  HS02004837HS02004842 CONDUIT     15.96     0  02:07      0.41    0.01    0.35
  HS02004830HS02004837 CONDUIT     62.46     0  01:55      0.66    0.06    0.14
  HS02004824HS02004830 CONDUIT     62.57     0  01:56      0.62    0.08    0.16
  HS02004817HS02004824 CONDUIT    123.43     0  01:59      0.31    0.06    0.58
  HS02004770HS02004777 CONDUIT    165.77     0  01:51      0.46    0.30    0.52
  HS02004799HS02004480 CONDUIT    414.30     0  01:53      1.02    0.52    0.58
  HS02004792HS02004799 CONDUIT    377.21     0  01:52      1.15    0.23    0.47
  HS02004788HS02004792 CONDUIT    218.44     0  01:53      1.24    0.14    0.25
  HS02004785HS02004788 CONDUIT    165.54     0  01:53      0.86    1.25    0.27
  HS02004777HS02004785 CONDUIT    165.44     0  01:52      0.54    0.20    0.44
  HS02004480HS02004478 CONDUIT    492.14     0  01:53      1.52    2.07    0.46
  HS02004479HS02004480 CONDUIT     78.31     0  01:54      0.27    0.08    0.55
  HS02004862HS02004870 CONDUIT     77.52     0  01:55      0.79    0.08    0.14
  HS02004848HS02004852 CONDUIT     36.10     0  01:55      0.52    0.04    0.10
  HS02004856HS02004862 CONDUIT     54.46     0  01:55      0.59    0.05    0.13
  HS02004852HS02004856 CONDUIT     36.15     0  01:56      0.33    0.04    0.16
  HS02004802HS02004478 CONDUIT    170.22     0  01:58      0.53    0.15    0.47
  HS02004478WS02006287 CONDUIT    655.81     0  01:54      2.08    0.18    0.35
  HS02004817HS02004807 CONDUIT    125.36     0  01:59      0.24    0.07    0.75
  HS02004807HS02004802 CONDUIT    169.24     0  01:58      0.47    0.32    0.53
  YS02001759YS02001757 CONDUIT    854.54     0  02:03      1.09    0.61    1.00
  YS02001762YS02001759 CONDUIT    430.54     0  02:02      0.55    0.50    1.00
  YS02001765YS02001762 CONDUIT    430.41     0  02:02      0.55    0.40    1.00
  YS02001770YS02001767 CONDUIT    429.72     0  02:02      0.55    1.70    1.00
  YS02001774YS02001770 CONDUIT    604.02     0  03:04      0.77    0.39    1.00
  YS02001779YS02001774 CONDUIT    604.13     0  03:03      0.77    0.30    1.00
  YS02001649YS02001757 CONDUIT   1018.59     0  01:57      1.30    0.62    1.00
  YS02001767YS02001765 CONDUIT    430.25     0  02:02      0.55    0.54    1.00
  YS02006561YS02001783 CONDUIT   1079.09     0  01:57      2.27    0.56    1.00
  YS02001783YS02001784 CONDUIT   1079.04     0  01:57      2.15    1.49    1.00
  YS02001784YS02001785 CONDUIT   1079.81     0  01:57      2.15    2.51    1.00
  YS02001788YS02001790 CONDUIT   1054.46     0  01:56      2.59    0.78    1.00
  YS02001790YS02001791 CONDUIT   1085.07     0  01:56      3.23    1.18    1.00
  YS02001791YS02001793 CONDUIT   1022.50     0  01:55      6.18    0.44    1.00
  YS02001910YS02001907 CONDUIT    669.89     0  01:59      0.85    0.38    1.00
  YS02001786YS02001788 CONDUIT   1073.82     0  01:57      2.36    2.07    1.00
  YS02001915YS02001910 CONDUIT    669.85     0  01:59      0.85    0.33    1.00
  YS02001918YS02001915 CONDUIT    391.93     0  01:59      0.50    0.22    1.00
  YS02001923YS02001920 CONDUIT    388.87     0  01:59      0.78    0.17    1.00
  YS02001926YS02001923 CONDUIT    314.89     0  02:00      0.87    0.45    1.00
  YS02001929YS02001926 CONDUIT    265.06     0  01:59      0.93    0.13    1.00
  YS02001920YS02001918 CONDUIT    391.70     0  01:59      0.75    0.38    1.00
  YS02001629YS02163301 CONDUIT    230.84     0  01:48      0.29    0.28    1.00
  YS02001619YS02001622 CONDUIT    336.62     0  02:16      0.76    0.50    1.00
  YS02001622YS02001625 CONDUIT    336.58     0  02:16      0.43    0.18    1.00
  YS02001625YS02001629 CONDUIT    210.05     0  01:47      0.31    0.10    1.00
  YS02163301YS02001633 CONDUIT    231.19     0  01:48      0.29    0.22    1.00
  YS02163601YS02164001 CONDUIT    432.60     0  01:52      0.55    0.38    1.00
  YS02164001YS02001641 CONDUIT    432.28     0  01:52      0.55    0.59    1.00
  YS02001641YS02001644 CONDUIT    432.12     0  01:52      0.55    1.40    1.00
  YS02001647YS02001649 CONDUIT    700.42     0  03:05      0.89    0.37    1.00
  YS02006553YS02006556 CONDUIT    682.98     0  03:22      0.87    0.58    1.00
  YS02006556YS02006558 CONDUIT    683.21     0  03:21      0.87    0.54    1.00
  YSB6556YSB1171       CONDUIT     43.98     0  01:54      0.13    0.05    0.82
  YS02001907YS02006553 CONDUIT    682.99     0  03:21      0.76    0.80    1.00
  YS02006558YS02006561 CONDUIT   1096.06     0  01:57      3.88    2.42    1.00
  YS02001633YS02163601 CONDUIT    432.57     0  01:52      0.55    0.45    1.00
  YS02001644YS02001647 CONDUIT    700.35     0  03:05      0.89    0.41    1.00
  YS02001745YS02001748 CONDUIT    396.02     0  02:15      1.73    0.15    0.96
  YS02001748YS02001751 CONDUIT    395.87     0  02:16      1.26    0.20    1.00
  YS02001751YS02001754 CONDUIT    395.70     0  02:16      1.03    0.19    1.00
  YS02001754YS02001757 CONDUIT    396.17     0  02:16      0.50    0.16    1.00
  YS02001882YS02001884 CONDUIT     18.93     0  04:04      0.12    0.02    1.00
  YS02001884YS02001887 CONDUIT     45.83     0  01:52      0.09    0.06    1.00
  YS02001890YS02001895 CONDUIT    520.95     0  01:58      0.66    0.24    1.00
  YS02001895YS02001898 CONDUIT    521.17     0  01:58      0.66    0.90    1.00
  YS02001898YS02001901 CONDUIT    520.76     0  01:58      0.66    0.34    1.00
  YS02001901YS02001904 CONDUIT    521.21     0  01:58      0.66    0.81    1.00
  YS02001904YS02001907 CONDUIT    520.76     0  01:58      0.66    0.18    1.00
  YS02001887YS02001890 CONDUIT    606.21     0  02:16      0.77    1.04    1.00
  YS02001652YS02001649 CONDUIT    476.10     0  02:16      0.61    0.24    1.00
  YS02001655YS02001652 CONDUIT    475.74     0  02:16      1.09    0.23    1.00
  YS02001658YS02001655 CONDUIT    475.45     0  02:16      1.45    0.20    1.00
  YS02001661YS02001658 CONDUIT    508.05     0  02:15      1.85    0.20    1.00
  YS02001664YS02001661 CONDUIT    766.74     0  02:03      1.75    0.24    0.76
  YSB1154YSB6556       CONDUIT     43.64     0  01:53      0.17    0.08    0.72
  YSB1174YSB1171       CONDUIT     35.14     0  01:50      0.10    0.05    0.83
  YSB1171HS02004479    CONDUIT     78.00     0  01:53      0.54    0.05    0.67
  HS02004881HS02006253 CONDUIT    139.58     0  01:55      2.67    0.03    0.33
  YS02001793JiankangQianchi CONDUIT    998.49     0  01:57     13.01    0.08    1.00
  YS02001757CaochengTiaoxuchi CONDUIT   2124.53     0  02:01      3.63    0.93    1.00
  WSF200WS02003060     CONDUIT    787.12     0  02:00      2.08    0.17    0.39
  1                    CONDUIT   1072.25     0  02:05      3.39    0.37    0.42
  2                    CONDUIT    269.57     0  02:20      6.27    0.65    0.59
  3                    CONDUIT    563.76     0  02:10     10.33    0.90    0.75
  4                    CONDUIT      0.00     0  00:00      0.00    0.00    0.00
  CC-Pump-1            PUMP       200.00     0  02:10              1.00
  CC-Pump-2            PUMP       200.00     0  02:20              1.00
  JK-Pump-1            PUMP       300.00     0  00:00              1.00
  JK-Pump-2            PUMP       300.00     0  01:41              1.00
  XR-Pump-1            PUMP        95.00     0  00:00              1.00
  XR-Pump-2            PUMP        95.00     0  00:00              1.00
  XR-Pump-3            PUMP        95.00     0  00:00              1.00
  XR-Pump-4            PUMP        95.00     0  00:00              1.00
  
  
  ***************************
  Flow Classification Summary
  ***************************
  
  -------------------------------------------------------------------------------------
                      Adjusted    ---------- Fraction of Time in Flow Class ---------- 
                       /Actual         Up    Down  Sub   Sup   Up    Down  Norm  Inlet 
  Conduit               Length    Dry  Dry   Dry   Crit  Crit  Crit  Crit  Ltd   Ctrl  
  -------------------------------------------------------------------------------------
  WS02003066WSF200        1.00   0.03  0.02  0.00  0.00  0.95  0.00  0.00  0.58  0.00
  WS02006287WS02006284    1.00   0.03  0.01  0.00  0.57  0.39  0.00  0.00  0.65  0.00
  WS02006284WS02006280    1.00   0.04  0.00  0.00  0.00  0.00  0.00  0.96  0.00  0.00
  WS02006280WS02006229    1.00   0.04  0.00  0.00  0.00  0.00  0.00  0.96  0.00  0.00
  WS02006229WS02006228    1.00   0.00  0.00  0.00  0.99  0.00  0.00  0.01  0.00  0.00
  WS02006256WS02006235    1.00   0.00  0.00  0.00  1.00  0.00  0.00  0.00  0.00  0.00
  WS02006253WS02006251    1.00   0.03  0.01  0.00  0.96  0.00  0.00  0.00  0.00  0.00
  WS02006252WS02006251    1.00   0.06  0.00  0.00  0.00  0.00  0.94  0.00  0.00  0.00
  WS02006251WS02006249    1.00   0.00  0.00  0.00  1.00  0.00  0.00  0.00  0.20  0.00
  WS02006249WS02006248    1.00   0.00  0.02  0.00  0.92  0.00  0.06  0.00  0.00  0.00
  WS02006248WS02006247    1.00   0.02  0.00  0.00  0.98  0.00  0.00  0.00  0.08  0.00
  WS02006247WS02006245    1.00   0.02  0.00  0.00  0.98  0.00  0.00  0.00  0.00  0.00
  WS02006245WS02006243    1.00   0.01  0.00  0.00  0.96  0.00  0.00  0.03  0.01  0.00
  WS02006243WS02006242    1.00   0.01  0.00  0.00  0.99  0.00  0.00  0.00  0.16  0.00
  WS02006242WS02006240    1.00   0.00  0.00  0.00  1.00  0.00  0.00  0.00  0.00  0.00
  WS02006240WS02006239    1.00   0.00  0.00  0.00  0.97  0.00  0.00  0.02  0.01  0.00
  WS02006239WS02006238    1.00   0.00  0.00  0.00  1.00  0.00  0.00  0.00  0.00  0.00
  WS02006238WS02006235    1.00   0.00  0.00  0.00  1.00  0.00  0.00  0.00  0.00  0.00
  WS02006235WS02006234    1.00   0.00  0.00  0.00  0.97  0.00  0.03  0.00  0.00  0.00
  WS02006234WS02006232    1.00   0.00  0.00  0.00  1.00  0.00  0.00  0.00  0.00  0.00
  WS02006232WS02006231    1.00   0.00  0.00  0.00  0.99  0.00  0.00  0.00  0.00  0.00
  WS02006231WS02006230    1.00   0.00  0.00  0.00  0.74  0.00  0.26  0.00  0.00  0.00
  WS02006230WS02006229    1.00   0.00  0.00  0.00  0.99  0.00  0.00  0.01  0.00  0.00
  WS02006228WS02006109    1.00   0.00  0.00  0.00  1.00  0.00  0.00  0.00  0.00  0.00
  WS02006116WS02004401    1.00   0.02  0.00  0.00  0.98  0.00  0.00  0.00  0.00  0.00
  WS02006115WS02006116    1.00   0.02  0.00  0.00  0.97  0.00  0.00  0.00  0.00  0.00
  WS02006113WS02006111    1.00   0.02  0.00  0.00  0.07  0.92  0.00  0.00  0.09  0.00
  WS02006112WS02006115    1.00   0.02  0.00  0.00  0.98  0.00  0.00  0.00  0.00  0.00
  WS02006111WS02006112    1.00   0.02  0.00  0.00  0.98  0.00  0.00  0.00  0.88  0.00
  WS02006110WS02006113    1.00   0.01  0.01  0.00  0.98  0.00  0.00  0.00  0.00  0.00
  WS02006109WS02006110    1.00   0.00  0.01  0.00  0.98  0.00  0.01  0.00  0.00  0.00
  WS02004411WS02004412    1.00   0.03  0.00  0.00  0.97  0.00  0.00  0.00  0.00  0.00
  WS02004401WS02004402    1.00   0.02  0.00  0.00  0.98  0.00  0.00  0.00  0.00  0.00
  WS02004413WS02003067    1.00   0.03  0.01  0.00  0.00  0.00  0.95  0.00  0.00  0.00
  WS02004412WS02004413    1.00   0.03  0.00  0.00  0.97  0.00  0.00  0.00  0.03  0.00
  WS02004410WS02004411    1.00   0.03  0.00  0.00  0.97  0.00  0.00  0.00  0.03  0.00
  WS02004409WS02004410    1.00   0.03  0.00  0.00  0.97  0.00  0.00  0.00  0.03  0.00
  WS02004407WS02004409    1.00   0.03  0.00  0.00  0.97  0.00  0.00  0.00  0.89  0.00
  WS02004406WS02004407    1.00   0.00  0.03  0.00  0.97  0.00  0.00  0.00  0.00  0.00
  WS02004405WS02004406    1.00   0.00  0.00  0.00  1.00  0.00  0.00  0.00  0.01  0.00
  WS02004404WS02004405    1.00   0.00  0.00  0.00  1.00  0.00  0.00  0.00  0.00  0.00
  WS02004403WS02004404    1.00   0.00  0.02  0.00  0.98  0.00  0.00  0.00  0.01  0.00
  WS02004402WS02004403    1.00   0.02  0.00  0.00  0.98  0.00  0.00  0.00  0.00  0.00
  WS02004139WS02001211    1.00   0.00  0.00  0.00  1.00  0.00  0.00  0.00  0.00  0.00
  WS02004138WS02004139    1.00   0.00  0.00  0.00  0.99  0.01  0.00  0.00  1.00  0.00
  WS02003067WS02003066    1.00   0.05  0.01  0.00  0.95  0.00  0.00  0.00  0.00  0.00
  WS02001213WS02003059    1.00   0.00  0.00  0.00  1.00  0.00  0.00  0.00  0.00  0.00
  WS02001212WS02001213    1.00   0.00  0.00  0.00  0.89  0.00  0.10  0.00  0.00  0.00
  WS02001211WS02001212    1.00   0.00  0.00  0.00  1.00  0.00  0.00  0.00  0.00  0.00
  WS02003072WS02003073    1.00   0.00  0.00  0.00  0.00  0.00  0.00  1.00  0.00  0.00
  WS02003069WS02003072    1.00   0.00  0.00  0.00  0.99  0.01  0.00  0.00  0.18  0.00
  WS02003060WS02003069    1.00   0.00  0.00  0.00  0.99  0.01  0.00  0.00  0.10  0.00
  WS02003059WS02003060    1.00   0.00  0.00  0.00  1.00  0.00  0.00  0.00  0.01  0.00
  HS02004901HS02004770    1.00   0.04  0.00  0.00  0.96  0.00  0.00  0.00  0.00  0.00
  HS02004876HS02004881    1.00   0.02  0.00  0.00  0.84  0.14  0.00  0.00  0.00  0.00
  HS02004870HS02004876    1.00   0.00  0.00  0.00  0.99  0.00  0.00  0.00  0.95  0.00
  HS02004842HS02004848    1.00   0.00  0.04  0.00  0.96  0.00  0.00  0.00  0.57  0.00
  HS02004837HS02004842    1.00   0.00  0.00  0.00  0.99  0.01  0.00  0.00  0.11  0.00
  HS02004830HS02004837    1.00   0.00  0.00  0.00  1.00  0.00  0.00  0.00  0.99  0.00
  HS02004824HS02004830    1.00   0.00  0.00  0.00  1.00  0.00  0.00  0.00  0.03  0.00
  HS02004817HS02004824    1.00   0.00  0.00  0.00  1.00  0.00  0.00  0.00  0.94  0.00
  HS02004770HS02004777    1.00   0.00  0.04  0.00  0.96  0.00  0.00  0.00  0.03  0.00
  HS02004799HS02004480    1.00   0.00  0.02  0.00  0.96  0.00  0.02  0.00  0.00  0.00
  HS02004792HS02004799    1.00   0.00  0.00  0.00  0.99  0.01  0.00  0.00  0.98  0.00
  HS02004788HS02004792    1.00   0.00  0.00  0.00  0.99  0.01  0.00  0.00  0.98  0.00
  HS02004785HS02004788    1.00   0.00  0.00  0.00  1.00  0.00  0.00  0.00  0.00  0.00
  HS02004777HS02004785    1.00   0.00  0.00  0.00  1.00  0.00  0.00  0.00  0.13  0.00
  HS02004480HS02004478    1.00   0.04  0.00  0.00  0.63  0.00  0.00  0.33  0.00  0.00
  HS02004479HS02004480    1.00   0.02  0.00  0.00  0.98  0.00  0.00  0.00  0.12  0.00
  HS02004862HS02004870    1.00   0.00  0.00  0.00  1.00  0.00  0.00  0.00  0.04  0.00
  HS02004848HS02004852    1.00   0.04  0.00  0.00  0.96  0.00  0.00  0.00  0.78  0.00
  HS02004856HS02004862    1.00   0.00  0.04  0.00  0.96  0.00  0.00  0.00  0.82  0.00
  HS02004852HS02004856    1.00   0.04  0.00  0.00  0.96  0.00  0.00  0.00  0.77  0.00
  HS02004802HS02004478    1.00   0.04  0.00  0.00  0.96  0.00  0.00  0.00  0.03  0.00
  HS02004478WS02006287    1.00   0.04  0.00  0.00  0.69  0.26  0.00  0.00  0.62  0.00
  HS02004817HS02004807    1.00   0.00  0.04  0.00  0.96  0.00  0.00  0.00  0.01  0.00
  HS02004807HS02004802    1.00   0.04  0.00  0.00  0.96  0.00  0.00  0.00  0.00  0.00
  YS02001759YS02001757    1.00   0.00  0.00  0.00  1.00  0.00  0.00  0.00  0.16  0.00
  YS02001762YS02001759    1.00   0.00  0.00  0.00  1.00  0.00  0.00  0.00  0.03  0.00
  YS02001765YS02001762    1.00   0.00  0.00  0.00  1.00  0.00  0.00  0.00  0.14  0.00
  YS02001770YS02001767    1.00   0.00  0.00  0.00  1.00  0.00  0.00  0.00  0.00  0.00
  YS02001774YS02001770    1.00   0.00  0.04  0.00  0.96  0.00  0.00  0.00  0.03  0.00
  YS02001779YS02001774    1.00   0.00  0.00  0.00  1.00  0.00  0.00  0.00  0.18  0.00
  YS02001649YS02001757    1.00   0.00  0.00  0.00  1.00  0.00  0.00  0.00  0.16  0.00
  YS02001767YS02001765    1.00   0.00  0.00  0.00  1.00  0.00  0.00  0.00  0.00  0.00
  YS02006561YS02001783    1.00   0.05  0.00  0.00  0.48  0.48  0.00  0.00  0.49  0.00
  YS02001783YS02001784    1.00   0.00  0.05  0.00  0.95  0.00  0.00  0.00  0.00  0.00
  YS02001784YS02001785    1.00   0.00  0.00  0.00  1.00  0.00  0.00  0.00  0.17  0.00
  YS02001788YS02001790    1.00   0.00  0.00  0.00  0.54  0.46  0.00  0.00  0.44  0.00
  YS02001790YS02001791    1.00   0.00  0.00  0.00  0.53  0.47  0.00  0.00  0.37  0.00
  YS02001791YS02001793    1.00   0.00  0.00  0.00  0.58  0.42  0.00  0.00  0.05  0.00
  YS02001910YS02001907    1.00   0.00  0.00  0.00  0.98  0.00  0.00  0.02  0.12  0.00
  YS02001786YS02001788    1.00   0.00  0.00  0.00  0.52  0.48  0.00  0.00  0.00  0.00
  YS02001915YS02001910    1.00   0.00  0.00  0.00  0.99  0.01  0.00  0.00  0.16  0.00
  YS02001918YS02001915    1.00   0.00  0.01  0.00  0.98  0.01  0.00  0.00  0.52  0.00
  YS02001923YS02001920    1.00   0.00  0.00  0.00  1.00  0.00  0.00  0.00  0.74  0.00
  YS02001926YS02001923    1.00   0.00  0.03  0.00  0.30  0.00  0.67  0.00  0.00  0.00
  YS02001929YS02001926    1.00   0.00  0.04  0.00  0.96  0.00  0.00  0.00  0.66  0.00
  YS02001920YS02001918    1.00   0.00  0.01  0.00  0.99  0.00  0.00  0.00  0.00  0.00
  YS02001629YS02163301    1.00   0.04  0.00  0.00  0.96  0.00  0.00  0.00  0.00  0.00
  YS02001619YS02001622    1.00   0.04  0.00  0.00  0.96  0.00  0.00  0.00  0.00  0.00
  YS02001622YS02001625    1.00   0.04  0.00  0.00  0.96  0.00  0.00  0.00  0.05  0.00
  YS02001625YS02001629    1.00   0.04  0.01  0.00  0.94  0.00  0.01  0.00  0.00  0.00
  YS02163301YS02001633    1.00   0.00  0.04  0.00  0.96  0.00  0.00  0.00  0.00  0.00
  YS02163601YS02164001    1.00   0.00  0.03  0.00  0.97  0.00  0.00  0.00  0.00  0.00
  YS02164001YS02001641    1.00   0.01  0.02  0.00  0.97  0.00  0.00  0.00  0.06  0.00
  YS02001641YS02001644    1.00   0.00  0.01  0.00  0.99  0.00  0.00  0.00  0.00  0.00
  YS02001647YS02001649    1.00   0.00  0.04  0.00  0.96  0.00  0.00  0.00  0.01  0.00
  YS02006553YS02006556    1.00   0.01  0.00  0.00  0.99  0.00  0.00  0.00  0.03  0.00
  YS02006556YS02006558    1.00   0.00  0.00  0.00  1.00  0.00  0.00  0.00  0.00  0.00
  YSB6556YSB1171          1.00   0.02  0.01  0.00  0.96  0.00  0.00  0.00  0.00  0.00
  YS02001907YS02006553    1.00   0.00  0.02  0.00  0.98  0.00  0.00  0.00  0.00  0.00
  YS02006558YS02006561    1.00   0.05  0.00  0.00  0.32  0.63  0.00  0.00  0.42  0.00
  YS02001633YS02163601    1.00   0.00  0.01  0.00  0.99  0.00  0.00  0.00  0.15  0.00
  YS02001644YS02001647    1.00   0.00  0.04  0.00  0.96  0.00  0.00  0.00  0.00  0.00
  YS02001745YS02001748    1.00   0.00  0.00  0.00  0.93  0.00  0.00  0.07  0.01  0.00
  YS02001748YS02001751    1.00   0.00  0.00  0.00  0.98  0.02  0.00  0.00  0.14  0.00
  YS02001751YS02001754    1.00   0.00  0.00  0.00  0.95  0.00  0.00  0.05  0.01  0.00
  YS02001754YS02001757    1.00   0.00  0.00  0.00  0.99  0.01  0.00  0.00  0.18  0.00
  YS02001882YS02001884    1.00   0.04  0.00  0.00  0.96  0.00  0.00  0.00  0.00  0.00
  YS02001884YS02001887    1.00   0.03  0.01  0.00  0.97  0.00  0.00  0.00  0.00  0.00
  YS02001890YS02001895    1.00   0.00  0.04  0.00  0.96  0.00  0.00  0.00  0.00  0.00
  YS02001895YS02001898    1.00   0.04  0.00  0.00  0.95  0.00  0.00  0.00  0.00  0.00
  YS02001898YS02001901    1.00   0.04  0.00  0.00  0.96  0.00  0.00  0.00  0.01  0.00
  YS02001901YS02001904    1.00   0.04  0.00  0.00  0.96  0.00  0.00  0.00  0.00  0.00
  YS02001904YS02001907    1.00   0.00  0.04  0.00  0.96  0.00  0.00  0.00  0.00  0.00
  YS02001887YS02001890    1.00   0.00  0.00  0.00  0.98  0.00  0.02  0.00  0.00  0.00
  YS02001652YS02001649    1.00   0.00  0.00  0.00  1.00  0.00  0.00  0.00  0.16  0.00
  YS02001655YS02001652    1.00   0.00  0.00  0.00  0.95  0.00  0.00  0.05  0.01  0.00
  YS02001658YS02001655    1.00   0.00  0.04  0.00  0.94  0.02  0.00  0.00  0.02  0.00
  YS02001661YS02001658    1.00   0.04  0.00  0.00  0.93  0.03  0.00  0.00  0.00  0.00
  YS02001664YS02001661    1.00   0.04  0.00  0.00  0.93  0.03  0.00  0.00  0.11  0.00
  YSB1154YSB6556          1.00   0.04  0.00  0.00  0.96  0.00  0.00  0.00  0.02  0.00
  YSB1174YSB1171          1.00   0.03  0.01  0.00  0.97  0.00  0.00  0.00  0.00  0.00
  YSB1171HS02004479       1.00   0.02  0.00  0.00  0.97  0.00  0.00  0.00  0.11  0.00
  HS02004881HS02006253    1.00   0.03  0.00  0.00  0.76  0.04  0.00  0.17  0.65  0.00
  YS02001793JiankangQianchi    1.00   0.00  0.00  0.00  0.81  0.18  0.00  0.00  0.21  0.00
  YS02001757CaochengTiaoxuchi    1.00   0.00  0.06  0.00  0.91  0.04  0.00  0.00  0.00  0.00
  WSF200WS02003060        1.00   0.00  0.03  0.00  0.52  0.45  0.00  0.00  0.25  0.00
  1                       1.00   0.00  0.00  0.00  0.00  1.00  0.00  0.00  0.42  0.00
  2                       1.00   0.53  0.00  0.00  0.00  0.47  0.00  0.00  0.11  0.00
  3                       1.00   0.09  0.00  0.00  0.00  0.91  0.00  0.00  0.25  0.00
  4                       1.00   1.00  0.00  0.00  0.00  0.00  0.00  0.00  0.00  0.00
  
  
  *************************
  Conduit Surcharge Summary
  *************************
  
  ----------------------------------------------------------------------------
                                                           Hours        Hours 
                         --------- Hours Full --------   Above Full   Capacity
  Conduit                Both Ends  Upstream  Dnstream   Normal Flow   Limited
  ----------------------------------------------------------------------------
  WS02006229WS02006228        2.65      3.04      2.65      5.26         2.65
  WS02006256WS02006235        6.35      6.35      7.77      3.08         0.01
  WS02006253WS02006251        0.12      0.12      0.27      0.01         0.01
  WS02006252WS02006251        1.30      1.30      2.73      2.36         0.01
  WS02006251WS02006249        0.01      0.18      0.01      1.47         0.01
  WS02006249WS02006248        0.01      0.01      0.01      4.37         0.01
  WS02006248WS02006247        0.01      0.01      0.31      0.01         0.01
  WS02006247WS02006245        0.30      0.38      0.30      5.00         0.30
  WS02006245WS02006243        0.39      0.39      0.64      0.01         0.01
  WS02006243WS02006242        0.81      0.81      1.76      0.01         0.01
  WS02006242WS02006240        1.14      1.14      2.34      2.32         0.01
  WS02006240WS02006239        1.32      1.32      1.42      0.12         0.01
  WS02006239WS02006238        2.08      2.09      2.33      0.19         0.06
  WS02006238WS02006235        2.10      2.10      2.78      0.01         0.02
  WS02006235WS02006234        1.20      1.20      1.87      6.26         0.05
  WS02006234WS02006232        1.50      1.50      3.02      0.01         0.01
  WS02006232WS02006231        1.16      1.16      3.02      0.01         0.01
  WS02006231WS02006230        0.82      0.82      1.19      6.36         0.03
  WS02006230WS02006229        4.20      5.08      4.20      6.46         4.15
  WS02006228WS02006109        2.79      3.65      2.79      5.88         2.79
  WS02006116WS02004401        0.53      0.53      0.54      0.47         0.47
  WS02006115WS02006116        0.36      0.36      0.38      0.11         0.11
  WS02006112WS02006115        0.31      0.31      1.41      0.01         0.01
  WS02006111WS02006112        0.01      0.01      5.48      0.01         0.01
  WS02006110WS02006113        0.01      0.01      3.34      0.01         0.01
  WS02006109WS02006110        1.33      1.33      3.66      1.33         0.01
  WS02004411WS02004412        0.01      0.01      0.01      0.51         0.01
  WS02004401WS02004402        0.54      0.54      0.58      0.01         0.01
  WS02004410WS02004411        0.01      0.01      0.01      0.45         0.01
  WS02004409WS02004410        0.01      0.01      0.01      0.21         0.01
  WS02004406WS02004407        0.01      0.01      0.72      0.01         0.01
  WS02004405WS02004406        0.72      0.79      0.72      1.37         0.72
  WS02004404WS02004405        0.79      0.88      0.79      6.25         0.79
  WS02004403WS02004404        0.59      0.59      0.88      0.01         0.01
  WS02004402WS02004403        0.58      0.58      0.59      0.53         0.52
  WS02003072WS02003073        0.01      0.01      0.01      5.75         0.01
  HS02004876HS02004881        0.01      0.01      0.01      0.49         0.01
  HS02004785HS02004788        0.01      0.01      0.01      0.35         0.01
  HS02004480HS02004478        0.01      0.01      0.01      0.79         0.01
  YS02001759YS02001757        6.09      6.09      6.12      0.01         0.01
  YS02001762YS02001759        6.08      6.08      6.09      0.01         0.01
  YS02001765YS02001762        6.08      6.08      6.08      0.01         0.01
  YS02001770YS02001767        6.07      6.07      6.07      0.40         0.77
  YS02001774YS02001770        6.07      6.07      6.08      0.01         0.01
  YS02001779YS02001774        6.04      6.04      6.08      0.01         0.01
  YS02001649YS02001757        6.08      6.08      6.12      0.01         0.01
  YS02001767YS02001765        6.07      6.07      6.08      0.01         0.01
  YS02006561YS02001783        1.61      1.61      2.12      0.01         0.01
  YS02001783YS02001784        2.11      2.12      2.21      2.03         1.91
  YS02001784YS02001785        2.06      2.21      2.06      2.73         2.06
  YS02001788YS02001790        2.04      2.04      2.83      0.01         0.01
  YS02001790YS02001791        2.83      2.83      2.90      1.53         1.47
  YS02001791YS02001793        2.90      2.90      3.34      0.01         0.01
  YS02001910YS02001907        1.94      1.94      2.26      0.01         0.01
  YS02001786YS02001788        2.04      2.06      2.04      2.41         2.04
  YS02001915YS02001910        1.75      1.75      1.94      0.01         0.01
  YS02001918YS02001915        1.51      1.51      1.75      0.01         0.01
  YS02001923YS02001920        1.32      1.32      1.54      0.01         0.01
  YS02001926YS02001923        0.01      0.01      0.01      0.01         0.01
  YS02001929YS02001926        0.01      0.01      0.01      0.01         0.01
  YS02001920YS02001918        1.51      1.51      1.54      0.01         0.01
  YS02001629YS02163301        6.06      6.06      6.07      0.01         0.01
  YS02001619YS02001622        6.02      6.02      6.03      0.01         0.01
  YS02001622YS02001625        6.03      6.03      6.05      0.01         0.01
  YS02001625YS02001629        6.02      6.02      6.05      0.01         0.01
  YS02163301YS02001633        6.07      6.07      6.08      0.01         0.01
  YS02163601YS02164001        6.08      6.08      6.09      0.01         0.01
  YS02164001YS02001641        6.08      6.08      6.08      0.01         0.02
  YS02001641YS02001644        6.08      6.08      6.08      2.21         2.11
  YS02001647YS02001649        6.05      6.05      6.08      0.01         0.01
  YS02006553YS02006556        2.11      2.11      2.31      0.01         0.01
  YS02006556YS02006558        2.18      2.18      2.37      0.01         0.01
  YSB6556YSB1171              0.01      0.01      0.14      0.01         0.01
  YS02001907YS02006553        2.76      2.76      2.95      0.01         0.01
  YS02006558YS02006561        1.78      2.09      1.78      2.63         1.78
  YS02001633YS02163601        6.08      6.08      6.09      0.01         0.01
  YS02001644YS02001647        6.05      6.05      6.08      0.01         0.01
  YS02001745YS02001748        0.01      0.01      5.98      0.01         0.01
  YS02001748YS02001751        6.00      6.00      6.02      0.01         0.01
  YS02001751YS02001754        6.02      6.02      6.05      0.01         0.01
  YS02001754YS02001757        6.05      6.05      6.12      0.01         0.01
  YS02001882YS02001884        1.76      1.76      1.79      0.01         0.01
  YS02001884YS02001887        1.84      1.84      1.87      0.01         0.01
  YS02001890YS02001895        1.73      1.73      1.96      0.01         0.01
  YS02001895YS02001898        1.71      1.71      1.73      0.01         0.01
  YS02001898YS02001901        1.74      1.74      1.84      0.01         0.01
  YS02001901YS02001904        1.81      1.81      1.84      0.01         0.01
  YS02001904YS02001907        1.81      1.81      2.34      0.01         0.01
  YS02001887YS02001890        1.90      1.90      1.92      0.20         0.01
  YS02001652YS02001649        6.06      6.06      6.08      0.01         0.01
  YS02001655YS02001652        6.02      6.02      6.05      0.01         0.01
  YS02001658YS02001655        5.99      5.99      6.02      0.01         0.01
  YS02001661YS02001658        0.29      0.29      5.99      0.01         0.01
  YS02001664YS02001661        0.01      0.01      1.62      0.01         0.01
  YS02001793JiankangQianchi        3.21      3.21      5.10      0.01         0.01
  YS02001757CaochengTiaoxuchi        5.64      5.64      6.12      0.01         0.01
  
  
  ***************
  Pumping Summary
  ***************
  
  ---------------------------------------------------------------------------------------------------------
                                                  Min       Avg       Max     Total     Power    % Time Off
                        Percent   Number of      Flow      Flow      Flow    Volume     Usage    Pump Curve
  Pump                 Utilized   Start-Ups       LPS       LPS       LPS  10^6 ltr     Kw-hr    Low   High
  ---------------------------------------------------------------------------------------------------------
  CC-Pump-1               68.08           5      0.00    139.33    200.00     2.640      2.79    0.0    0.0
  CC-Pump-2               66.50           7      0.00    125.39    200.00     2.342      2.45    0.0    0.8
  JK-Pump-1               91.49           3      0.00    212.90    300.00     4.445     34.12    0.0    0.0
  JK-Pump-2               78.71           7      0.00    185.43    300.00     3.288     27.08    0.0    0.0
  XR-Pump-1               82.97           9      0.00     65.66     95.00     1.539     11.48    0.0    0.0
  XR-Pump-2               82.97           9      0.00     69.46     95.00     1.625     12.90    0.0    0.0
  XR-Pump-3               89.35           8      0.00     71.11     95.00     1.853     15.29    0.0    0.0
  XR-Pump-4               72.33           8      0.00     70.13     95.00     1.397     10.97    0.0    0.0
  

  Analysis begun on:  Mon Dec 20 20:10:08 2021
  Analysis ended on:  Mon Dec 20 20:10:12 2021
  Total elapsed time: 00:00:04