
  EPA STORM WATER MANAGEMENT MODEL - VERSION 5.1 (Build 5.3.0.dev0)
  --------------------------------------------------------------

  WARNING 04: minimum elevation drop used for Conduit WS02004404WS02004405
  WARNING 03: negative offset ignored for Link YS02001904YS02001907
  
  *********************************************************
  NOTE: The summary statistics displayed in this report are
  based on results found at every computational time step,  
  not just on results from each reporting time step.
  *********************************************************
  
  ****************
  Analysis Options
  ****************
  Flow Units ............... LPS
  Process Models:
    Rainfall/Runoff ........ YES
    RDII ................... NO
    Snowmelt ............... NO
    Groundwater ............ NO
    Flow Routing ........... YES
    Ponding Allowed ........ NO
    Water Quality .......... NO
  Infiltration Method ...... HORTON
  Flow Routing Method ...... DYNWAVE
  Surcharge Method ......... EXTRAN
  Starting Date ............ 08/28/2015 08:00:00
  Ending Date .............. 08/28/2015 15:50:00
  Antecedent Dry Days ...... 8.0
  Report Time Step ......... 00:01:00
  Wet Time Step ............ 00:01:00
  Dry Time Step ............ 00:01:00
  Routing Time Step ........ 5.00 sec
  Variable Time Step ....... YES
  Maximum Trials ........... 8
  Number of Threads ........ 4
  Head Tolerance ........... 0.001500 m
  
  
  **************************        Volume         Depth
  Runoff Quantity Continuity     hectare-m            mm
  **************************     ---------       -------
  Total Precipitation ......         5.493        12.027
  Evaporation Loss .........         0.000         0.000
  Infiltration Loss ........         1.412         3.091
  Surface Runoff ...........         3.074         6.729
  Final Storage ............         1.009         2.209
  Continuity Error (%) .....        -0.014
  
  
  **************************        Volume        Volume
  Flow Routing Continuity        hectare-m      10^6 ltr
  **************************     ---------     ---------
  Dry Weather Inflow .......         0.616         6.165
  Wet Weather Inflow .......         3.072        30.724
  Groundwater Inflow .......         0.000         0.000
  RDII Inflow ..............         0.000         0.000
  External Inflow ..........         0.102         1.024
  External Outflow .........         2.020        20.202
  Flooding Loss ............         1.321        13.205
  Evaporation Loss .........         0.000         0.000
  Exfiltration Loss ........         0.000         0.000
  Initial Stored Volume ....         0.076         0.761
  Final Stored Volume ......         0.612         6.118
  Continuity Error (%) .....        -2.202
  
  
  *************************
  Highest Continuity Errors
  *************************
  Node HS02004842 (16.38%)
  Node YS02001884 (10.25%)
  Node JK-storage (-9.24%)
  Node YSB1171 (3.16%)
  Node HS02004817 (3.01%)
  
  
  ***************************
  Time-Step Critical Elements
  ***************************
  Link WS02006252WS02006251 (48.32%)
  Link 3 (42.97%)
  Link WS02006238WS02006235 (2.99%)
  
  
  ********************************
  Highest Flow Instability Indexes
  ********************************
  Link YS02163301YS02001633 (37)
  Link YS02001619YS02001622 (37)
  Link YS02001629YS02163301 (36)
  Link YS02163601YS02164001 (36)
  Link WS02006113WS02006111 (36)
  
  
  *************************
  Routing Time Step Summary
  *************************
  Minimum Time Step           :     0.29 sec
  Average Time Step           :     0.76 sec
  Maximum Time Step           :     5.00 sec
  Percent in Steady State     :    -0.00
  Average Iterations per Step :     4.61
  Percent Not Converging      :    22.40
  
  
  ***************************
  Subcatchment Runoff Summary
  ***************************
  
  ------------------------------------------------------------------------------------------------------------------------------
                            Total      Total      Total      Total     Imperv       Perv      Total       Total     Peak  Runoff
                           Precip      Runon       Evap      Infil     Runoff     Runoff     Runoff      Runoff   Runoff   Coeff
  Subcatchment                 mm         mm         mm         mm         mm         mm         mm    10^6 ltr      LPS
  ------------------------------------------------------------------------------------------------------------------------------
  sub0                      12.03       0.00       0.00       0.84       9.92       0.00       9.92        0.01     2.03   0.825
  sub1                      12.03       0.00       0.00       1.32       9.45       0.00       9.45        0.06    13.40   0.786
  sub2                      12.03       0.00       0.00       4.45       6.67       0.00       6.67        0.06    12.40   0.555
  sub3                      12.03       0.00       0.00       4.45       6.63       0.00       6.63        0.15    27.80   0.552
  sub4                      12.03       0.00       0.00       1.32       9.30       0.00       9.30        0.19    33.44   0.773
  sub5                      12.03       0.00       0.00       0.84       9.87       0.00       9.87        0.11    23.84   0.821
  sub7                      12.03       0.00       0.00       1.08       9.69       0.00       9.69        0.03     7.67   0.806
  sub8                      12.03       0.00       0.00       1.08       9.68       0.00       9.68        0.06    14.05   0.805
  sub9                      12.03       0.00       0.00       1.08       9.68       0.00       9.68        0.05    10.50   0.805
  sub10                     12.03       0.00       0.00       0.96       9.77       0.00       9.77        0.11    23.44   0.813
  sub11                     12.03       0.00       0.00       0.96       9.79       0.00       9.79        0.11    26.14   0.814
  sub12                     12.03       0.00       0.00       1.56       9.28       0.00       9.28        0.08    19.99   0.771
  sub14                     12.03       0.00       0.00       1.08       9.68       0.00       9.68        0.09    20.64   0.805
  sub15                     12.03       0.00       0.00       3.61       7.44       0.00       7.44        0.13    28.31   0.619
  sub16                     12.03       0.00       0.00       3.97       7.14       0.00       7.14        0.07    18.12   0.594
  sub17                     12.03       0.00       0.00       3.85       7.24       0.00       7.24        0.06    14.90   0.602
  sub22                     12.03       0.00       0.00       5.17       6.07       0.00       6.07        0.38    88.71   0.504
  sub23                     12.03       0.00       0.00       4.45       6.71       0.00       6.71        0.32    74.74   0.558
  sub60                     12.03       0.00       0.00       1.44       7.74       0.00       7.74        2.35   221.95   0.644
  sub61                     12.03       0.00       0.00       2.04       7.85       0.00       7.85        2.42   262.11   0.653
  sub62                     12.03       0.00       0.00       0.96       8.54       0.00       8.54        2.63   273.68   0.710
  sub63                     12.03       0.00       0.00       3.49       6.87       0.00       6.87        2.08   239.63   0.571
  sub64                     12.03       0.00       0.00       1.80       7.43       0.00       7.43        2.26   211.47   0.618
  sub65                     12.03       0.00       0.00       1.56       7.55       0.00       7.55        2.32   215.23   0.628
  sub66                     12.03       0.00       0.00       3.49       6.37       0.00       6.37        1.95   191.04   0.530
  sub67                     12.03       0.00       0.00       0.96       9.00       0.00       9.00        2.78   332.67   0.749
  sub68                     12.03       0.00       0.00       1.68       8.26       0.00       8.26        2.54   285.76   0.687
  sub69                     12.03       0.00       0.00       1.80       8.55       0.00       8.55        2.00   265.64   0.711
  sub70                     12.03       8.73       0.00       6.95      11.44       0.11      11.55        2.64   261.84   0.556
  sub71                     12.03       0.00       0.00       0.96       8.33       0.00       8.33        1.97   195.24   0.692
  sub72                     12.03       0.00       0.00       0.84       6.67       0.00       6.67        1.36   105.11   0.555
  sub73                     12.03      11.24       0.00       7.83      12.57       0.08      12.65        2.97   255.46   0.544
  sub74                     12.03       0.00       0.00       9.02       2.55       0.00       2.55        1.02   143.98   0.212
  
  
  ******************
  Node Depth Summary
  ******************
  
  ---------------------------------------------------------------------------------
                                 Average  Maximum  Maximum  Time of Max    Reported
                                   Depth    Depth      HGL   Occurrence   Max Depth
  Node                 Type       Meters   Meters   Meters  days hr:min      Meters
  ---------------------------------------------------------------------------------
  WS02001211           JUNCTION     0.65     0.78     5.62     0  05:10        0.78
  WS02001212           JUNCTION     0.38     0.49     5.55     0  05:10        0.49
  WS02001213           JUNCTION     0.62     0.73     5.49     0  05:11        0.73
  WS02003069           JUNCTION     0.45     0.54     5.12     0  02:03        0.54
  WS02003072           JUNCTION     0.51     0.60     4.97     0  02:04        0.60
  WS02003073           JUNCTION     0.31     0.37     4.43     0  02:05        0.37
  WS02003060           JUNCTION     0.40     0.48     5.41     0  02:03        0.48
  WS02003066           JUNCTION     0.24     0.32     5.87     0  01:50        0.32
  WS02003059           JUNCTION     0.68     0.78     5.47     0  05:11        0.78
  WS02003067           JUNCTION     0.59     0.74     6.06     0  01:50        0.74
  WS02004401           JUNCTION     0.71     0.95     6.95     0  01:47        0.95
  WS02004402           JUNCTION     0.74     0.97     6.93     0  01:48        0.97
  WS02004403           JUNCTION     0.76     0.98     6.91     0  01:48        0.98
  WS02004404           JUNCTION     0.83     1.04     6.89     0  01:48        1.04
  WS02004406           JUNCTION     0.84     1.02     6.85     0  01:48        1.02
  WS02004409           JUNCTION     0.53     0.74     6.51     0  01:50        0.74
  WS02004410           JUNCTION     0.54     0.75     6.47     0  01:50        0.75
  WS02004411           JUNCTION     0.56     0.75     6.43     0  01:50        0.75
  WS02004412           JUNCTION     0.57     0.75     6.39     0  01:50        0.75
  WS02004413           JUNCTION     0.72     0.90     6.37     0  01:50        0.90
  WS02004405           JUNCTION     0.83     1.03     6.88     0  01:48        1.03
  WS02006109           JUNCTION     0.79     1.09     7.71     0  01:45        1.08
  WS02006110           JUNCTION     0.78     1.01     7.59     0  01:43        1.00
  WS02006111           JUNCTION     0.23     0.33     7.04     0  02:01        0.33
  WS02006112           JUNCTION     0.88     1.20     7.08     0  01:54        1.18
  WS02006113           JUNCTION     0.36     0.50     7.39     0  01:44        0.50
  WS02006115           JUNCTION     0.60     0.86     7.00     0  01:47        0.86
  WS02006116           JUNCTION     0.68     0.94     6.98     0  01:47        0.94
  WS02006230           JUNCTION     0.78     1.16     7.90     0  01:42        1.15
  WS02006231           JUNCTION     0.52     0.82     7.95     0  01:42        0.82
  WS02006232           JUNCTION     0.66     0.93     7.97     0  01:42        0.93
  WS02006234           JUNCTION     0.58     0.85     8.00     0  01:58        0.84
  WS02006235           JUNCTION     0.61     0.87     8.04     0  02:00        0.86
  WS02006238           JUNCTION     0.63     0.90     8.05     0  02:00        0.89
  WS02006240           JUNCTION     0.53     0.80     8.10     0  02:00        0.80
  WS02006242           JUNCTION     0.58     0.86     8.13     0  01:59        0.85
  WS02006243           JUNCTION     0.46     0.74     8.16     0  02:00        0.74
  WS02006245           JUNCTION     0.44     0.71     8.19     0  02:00        0.71
  WS02006247           JUNCTION     0.45     0.72     8.22     0  02:00        0.71
  WS02006248           JUNCTION     0.40     0.65     8.23     0  02:00        0.64
  WS02006249           JUNCTION     0.43     0.65     8.25     0  02:00        0.65
  WS02006239           JUNCTION     0.59     0.86     8.07     0  01:58        0.85
  WS02006251           JUNCTION     0.41     0.69     8.36     0  02:00        0.69
  WS02006252           JUNCTION     0.36     0.59     8.83     0  01:59        0.59
  WS02006253           JUNCTION     0.44     0.73     8.37     0  02:00        0.72
  WS02006256           JUNCTION     1.08     2.35     9.28     0  00:00        1.21
  WS02004138           JUNCTION     0.15     0.19     7.44     0  05:02        0.19
  WS02004407           JUNCTION     0.24     0.32     6.64     0  01:48        0.32
  WS02006228           JUNCTION     0.80     1.15     7.80     0  01:43        1.14
  WS02006229           JUNCTION     0.78     1.16     7.85     0  01:43        1.15
  WS02006280           JUNCTION     0.07     0.19     8.46     0  01:42        0.19
  WS02006284           JUNCTION     0.37     0.54     8.94     0  01:42        0.54
  WS02006287           JUNCTION     0.10     0.28     9.23     0  01:42        0.28
  WSF200               JUNCTION     0.23     0.33     5.57     0  02:03        0.33
  HS02004901           JUNCTION     0.13     0.28    10.10     0  01:39        0.28
  HS02004881           JUNCTION     0.01     0.03     9.06     0  01:43        0.03
  HS02004876           JUNCTION     0.05     0.12     9.15     0  01:43        0.12
  HS02004870           JUNCTION     0.02     0.06     9.35     0  01:43        0.06
  HS02004862           JUNCTION     0.02     0.07     9.45     0  01:44        0.07
  HS02004856           JUNCTION     0.08     0.12     9.55     0  01:44        0.12
  HS02004852           JUNCTION     0.01     0.04     9.56     0  01:52        0.04
  HS02004848           JUNCTION     0.01     0.04     9.64     0  01:51        0.04
  HS02004842           JUNCTION     0.33     0.37     9.64     0  01:51        0.37
  HS02004837           JUNCTION     0.03     0.06     9.64     0  01:51        0.06
  HS02004830           JUNCTION     0.04     0.08     9.55     0  01:45        0.08
  HS02004824           JUNCTION     0.02     0.06     9.46     0  01:54        0.06
  HS02004817           JUNCTION     0.45     0.59     9.43     0  01:43        0.59
  HS02004807           JUNCTION     0.13     0.26     9.43     0  01:43        0.26
  HS02004802           JUNCTION     0.17     0.30     9.42     0  01:43        0.29
  HS02004799           JUNCTION     0.13     0.33     9.54     0  01:40        0.33
  HS02004792           JUNCTION     0.04     0.14     9.66     0  01:40        0.14
  HS02004788           JUNCTION     0.03     0.10    10.00     0  01:40        0.10
  HS02004785           JUNCTION     0.05     0.17    10.07     0  01:40        0.17
  HS02004777           JUNCTION     0.15     0.30    10.10     0  01:39        0.30
  HS02004770           JUNCTION     0.12     0.27    10.10     0  01:39        0.27
  HS02004480           JUNCTION     0.09     0.27     9.51     0  01:41        0.27
  HS02004479           JUNCTION     0.12     0.30     9.51     0  01:40        0.30
  HS02004478           JUNCTION     0.07     0.18     9.41     0  01:42        0.18
  YS02001745           JUNCTION     0.72     0.87     8.39     0  03:00        0.87
  YS02001748           JUNCTION     1.12     2.27     9.35     0  02:06        1.78
  YS02001751           JUNCTION     1.31     2.20     9.08     0  02:01        1.87
  YS02001754           JUNCTION     1.57     2.20     8.81     0  02:05        1.97
  YS02001762           JUNCTION     1.77     2.03     8.43     0  02:52        2.02
  YS02001765           JUNCTION     1.72     1.98     8.43     0  02:48        1.97
  YS02001767           JUNCTION     1.69     1.93     8.42     0  02:45        1.93
  YS02001770           JUNCTION     1.68     1.95     8.44     0  02:05        1.90
  YS02001774           JUNCTION     1.75     2.02     8.44     0  02:05        1.96
  YS02001779           JUNCTION     1.50     1.68     8.37     0  02:01        1.68
  YS02001882           JUNCTION     0.51     1.37     8.09     0  02:30        1.37
  YS02001884           JUNCTION     0.60     1.47     8.09     0  02:29        1.46
  YS02001759           JUNCTION     1.80     2.07     8.43     0  02:47        2.06
  YS02001887           JUNCTION     0.68     1.55     8.09     0  02:29        1.55
  YS02001890           JUNCTION     0.71     1.58     8.08     0  02:31        1.57
  YS02001898           JUNCTION     0.48     1.34     8.07     0  02:29        1.33
  YS02001901           JUNCTION     0.60     1.46     8.07     0  02:29        1.45
  YS02001904           JUNCTION     0.58     1.43     8.06     0  02:31        1.42
  YS02001907           JUNCTION     0.91     1.77     8.06     0  02:30        1.76
  YS02001910           JUNCTION     0.70     1.56     8.06     0  02:30        1.55
  YS02001915           JUNCTION     0.49     1.35     8.07     0  02:29        1.35
  YS02001918           JUNCTION     0.24     1.00     8.06     0  02:29        0.99
  YS02001619           JUNCTION     1.28     1.61     8.54     0  02:01        1.49
  YS02001629           JUNCTION     1.64     1.85     8.40     0  02:05        1.85
  YS02001641           JUNCTION     1.74     1.98     8.42     0  02:09        1.93
  YS02001644           JUNCTION     1.74     1.92     8.35     0  02:05        1.92
  YS02001652           JUNCTION     1.58     2.16     8.76     0  02:43        1.99
  YS02001655           JUNCTION     1.34     2.20     9.05     0  01:57        1.91
  YS02001920           JUNCTION     0.34     1.05     8.06     0  02:29        1.05
  YS02001923           JUNCTION     0.18     0.80     8.06     0  02:31        0.80
  YS02001926           JUNCTION     0.24     0.62     8.06     0  02:30        0.61
  YS02001929           JUNCTION     0.12     0.37     8.07     0  02:30        0.37
  YS02001658           JUNCTION     1.07     2.30     9.44     0  02:04        1.80
  YS02001661           JUNCTION     0.83     2.43     9.84     0  02:43        1.74
  YS02001664           JUNCTION     0.36     0.57     8.50     0  02:22        0.56
  YS02001622           JUNCTION     1.30     1.62     8.52     0  02:02        1.51
  YS02001633           JUNCTION     1.73     2.00     8.45     0  02:09        1.94
  YS02001649           JUNCTION     1.78     2.05     8.44     0  02:04        2.05
  YS02001757           JUNCTION     1.90     2.21     8.47     0  02:05        2.16
  YS02001895           JUNCTION     0.47     1.33     8.08     0  02:31        1.32
  YS02001625           JUNCTION     1.59     1.78     8.38     0  02:03        1.78
  YS02163301           JUNCTION     1.67     1.92     8.43     0  02:06        1.88
  YS02163601           JUNCTION     1.78     2.07     8.46     0  02:09        1.98
  YS02164001           JUNCTION     1.72     1.99     8.45     0  02:09        1.91
  YS02001647           JUNCTION     1.57     1.83     8.44     0  02:04        1.79
  YSB1154              JUNCTION     0.26     0.45     9.51     0  01:40        0.45
  YSB6556              JUNCTION     0.16     0.34     9.51     0  01:40        0.34
  YSB1174              JUNCTION     0.22     0.40     9.51     0  01:41        0.40
  YSB1171              JUNCTION     0.42     0.61     9.51     0  01:40        0.61
  YS02006553           JUNCTION     0.91     1.76     8.05     0  02:29        1.75
  YS02006561           JUNCTION     0.29     0.93     7.59     0  02:30        0.92
  YS02006556           JUNCTION     0.88     1.72     8.03     0  02:29        1.71
  YS02006558           JUNCTION     0.92     1.75     8.02     0  02:29        1.75
  YS02001783           JUNCTION     0.51     2.40     8.54     0  02:02        1.34
  YS02001784           JUNCTION     0.53     1.82     7.88     0  02:02        1.29
  YS02001786           JUNCTION     0.48     2.08     8.11     0  02:02        1.16
  YS02001788           JUNCTION     0.41     2.22     8.20     0  02:02        1.06
  YS02001790           JUNCTION     0.52     1.96     7.60     0  02:01        1.25
  YS02001791           JUNCTION     0.50     2.03     7.50     0  04:26        1.25
  YS02001793           JUNCTION     0.68     2.06     6.89     0  02:02        1.80
  WS02004139           JUNCTION     0.59     0.73     5.64     0  05:10        0.73
  WSC                  OUTFALL      0.31     0.37     1.04     0  02:05        0.37
  3                    OUTFALL      0.11     0.23     6.23     0  00:00        0.20
  4                    OUTFALL      0.02     0.15     7.15     0  02:00        0.15
  5                    OUTFALL      0.00     0.00     5.00     0  00:00        0.00
  JK-storage           STORAGE      2.54     5.80     6.60     0  02:02        5.80
  CC-storage           STORAGE      1.13     1.38     8.38     0  04:02        1.38
  XR-storage           STORAGE      7.42     7.72     5.72     0  01:48        7.72
  
  
  *******************
  Node Inflow Summary
  *******************
  
  -------------------------------------------------------------------------------------------------
                                  Maximum  Maximum                  Lateral       Total        Flow
                                  Lateral    Total  Time of Max      Inflow      Inflow     Balance
                                   Inflow   Inflow   Occurrence      Volume      Volume       Error
  Node                 Type           LPS      LPS  days hr:min    10^6 ltr    10^6 ltr     Percent
  -------------------------------------------------------------------------------------------------
  WS02001211           JUNCTION      7.35   387.04     0  05:10       0.207        6.44       0.563
  WS02001212           JUNCTION      0.00   386.35     0  05:10           0        6.41       0.329
  WS02001213           JUNCTION      0.00   385.85     0  05:10           0        6.39       0.379
  WS02003069           JUNCTION      0.32   822.14     0  02:03     0.00902        15.4       0.208
  WS02003072           JUNCTION      0.00   821.72     0  02:04           0        15.4       0.253
  WS02003073           JUNCTION      1.82   823.48     0  02:04      0.0514        15.4       0.287
  WS02003060           JUNCTION     16.53   821.79     0  02:02       0.466        15.5       0.196
  WS02003066           JUNCTION      0.00   639.64     0  01:50           0        8.67       0.054
  WS02003059           JUNCTION      0.00   385.18     0  05:10           0        6.36       0.601
  WS02003067           JUNCTION      0.00   639.28     0  01:50           0        8.68       0.111
  WS02004401           JUNCTION      0.00   646.17     0  01:47           0        8.92       0.248
  WS02004402           JUNCTION      0.00   644.97     0  01:47           0         8.9       0.234
  WS02004403           JUNCTION      0.00   644.76     0  01:48           0        8.88       0.212
  WS02004404           JUNCTION      0.16   645.34     0  01:47     0.00457        8.86       0.158
  WS02004406           JUNCTION      0.00   645.08     0  01:48           0        8.83       0.386
  WS02004409           JUNCTION      0.00   644.60     0  01:48           0        8.79       0.196
  WS02004410           JUNCTION      0.00   642.52     0  01:48           0        8.77       0.221
  WS02004411           JUNCTION      0.00   641.01     0  01:49           0        8.75       0.226
  WS02004412           JUNCTION      0.00   639.98     0  01:49           0        8.73       0.242
  WS02004413           JUNCTION      0.00   639.39     0  01:49           0        8.71       0.360
  WS02004405           JUNCTION      0.04   645.00     0  01:47     0.00107        8.85       0.239
  WS02006109           JUNCTION      1.23   639.35     0  01:43      0.0347        8.98       0.247
  WS02006110           JUNCTION      0.00   639.32     0  01:43           0        8.96       0.228
  WS02006111           JUNCTION      0.00   671.39     0  01:44           0        8.93       0.051
  WS02006112           JUNCTION     14.90   652.00     0  01:47      0.0621        8.99       0.318
  WS02006113           JUNCTION      0.00   641.63     0  01:44           0        8.94       0.113
  WS02006115           JUNCTION      0.00   656.71     0  01:45           0        8.96       0.238
  WS02006116           JUNCTION      0.00   646.42     0  01:47           0        8.94       0.229
  WS02006230           JUNCTION     10.28   399.47     0  05:03        0.29        7.13       0.199
  WS02006231           JUNCTION      0.00   390.07     0  05:02           0        6.85       0.159
  WS02006232           JUNCTION      0.00   390.18     0  05:02           0        6.86       0.244
  WS02006234           JUNCTION      0.00   391.45     0  05:01           0        6.87       0.126
  WS02006235           JUNCTION      0.00   392.18     0  05:01           0        6.91       0.160
  WS02006238           JUNCTION      0.00   310.32     0  07:21           0        4.72       0.170
  WS02006240           JUNCTION      0.00   331.55     0  02:41           0        4.72       0.254
  WS02006242           JUNCTION      0.00   342.45     0  02:41           0        4.73       0.324
  WS02006243           JUNCTION      0.00   348.12     0  02:41           0        4.72      -0.051
  WS02006245           JUNCTION      0.00   352.02     0  02:41           0        4.73       0.251
  WS02006247           JUNCTION      0.00   356.27     0  02:40           0        4.74       0.145
  WS02006248           JUNCTION      0.00   361.18     0  02:40           0        4.74       0.064
  WS02006249           JUNCTION      0.00   458.12     0  02:00           0         5.1       0.231
  WS02006239           JUNCTION      0.00   315.63     0  02:40           0        4.72       0.247
  WS02006251           JUNCTION      0.08   460.36     0  02:00     0.00217        5.13       0.170
  WS02006252           JUNCTION      0.00   400.00     0  05:00           0        4.75       0.010
  WS02006253           JUNCTION      2.03    76.41     0  01:43     0.00803       0.386       1.016
  WS02006256           JUNCTION      0.00   600.00     0  00:00           0         6.7       0.038
  WS02004138           JUNCTION      0.00   380.00     0  05:00           0        6.27       0.079
  WS02004407           JUNCTION      0.00   644.92     0  01:48           0        8.79       0.087
  WS02006228           JUNCTION      0.00   638.11     0  01:43           0        8.97       0.176
  WS02006229           JUNCTION      0.00   642.07     0  01:42           0        8.98       0.146
  WS02006280           JUNCTION      0.00   366.27     0  01:42           0        1.87       0.003
  WS02006284           JUNCTION      0.10   366.30     0  01:42      0.0027        1.87       0.025
  WS02006287           JUNCTION      0.00   366.22     0  01:42           0        1.87       0.038
  WSF200               JUNCTION      0.00   639.77     0  01:50           0        8.66       0.050
  HS02004901           JUNCTION     18.12    18.12     0  01:36      0.0747      0.0749       2.401
  HS02004881           JUNCTION      7.67    74.61     0  01:43      0.0326       0.352       0.095
  HS02004876           JUNCTION     13.40    67.33     0  01:43      0.0628        0.32       0.168
  HS02004870           JUNCTION     14.05    54.07     0  01:43      0.0618       0.257       0.041
  HS02004862           JUNCTION     12.60    40.55     0  01:44      0.0678       0.196       0.087
  HS02004856           JUNCTION     10.50    27.98     0  01:43      0.0465       0.129       1.124
  HS02004852           JUNCTION      0.00    17.93     0  01:51           0      0.0829       0.064
  HS02004848           JUNCTION     27.80    27.80     0  01:53       0.149       0.149       0.029
  HS02004842           JUNCTION      0.00    10.09     0  01:58           0      0.0794      19.593
  HS02004837           JUNCTION     29.79    38.22     0  01:51       0.287       0.353       0.230
  HS02004830           JUNCTION      0.15    38.36     0  01:51     0.00423       0.344       0.360
  HS02004824           JUNCTION     33.49    71.74     0  01:54       0.195       0.538       0.100
  HS02004817           JUNCTION      0.60    72.33     0  01:54      0.0169       0.554       3.102
  HS02004807           JUNCTION     26.14    95.63     0  01:52       0.114       0.651       0.672
  HS02004802           JUNCTION      0.00    95.92     0  01:53           0       0.649       0.613
  HS02004799           JUNCTION     20.64   230.90     0  01:40      0.0921        1.05       0.259
  HS02004792           JUNCTION     88.99   210.32     0  01:39       0.391       0.955       0.041
  HS02004788           JUNCTION     29.98   122.04     0  01:40       0.175       0.565       0.068
  HS02004785           JUNCTION      0.15    92.14     0  01:39     0.00423       0.391       0.125
  HS02004777           JUNCTION      0.03    92.19     0  01:38    0.000846       0.391       1.344
  HS02004770           JUNCTION     74.74    92.54     0  01:38        0.32       0.393       0.790
  HS02004480           JUNCTION      0.00   273.94     0  01:41           0        1.24       0.088
  HS02004479           JUNCTION      0.00    43.17     0  01:41           0       0.201       0.365
  HS02004478           JUNCTION      0.00   366.17     0  01:42           0        1.87       0.020
  YS02001745           JUNCTION    221.95   444.95     0  02:06        2.35        2.36       0.426
  YS02001748           JUNCTION      0.04   619.75     0  02:06     0.00127        2.35       0.965
  YS02001751           JUNCTION      0.01   400.14     0  01:59     0.00031        2.31       1.015
  YS02001754           JUNCTION      0.26   255.17     0  02:08     0.00733         2.3       1.074
  YS02001762           JUNCTION      0.00   278.10     0  02:11           0        1.76       1.209
  YS02001765           JUNCTION      0.00   276.70     0  02:12           0        1.76       1.400
  YS02001767           JUNCTION      0.54   275.71     0  02:12      0.0151        1.78       2.046
  YS02001770           JUNCTION    273.83   287.39     0  03:01        2.63        2.67       1.186
  YS02001774           JUNCTION      0.00   288.11     0  03:01           0       0.929       2.779
  YS02001779           JUNCTION      0.01   288.60     0  03:01    0.000141       0.897       1.750
  YS02001882           JUNCTION      0.00    26.79     0  02:04           0      0.0193      12.149
  YS02001884           JUNCTION      0.00    56.38     0  02:04           0      0.0556      11.425
  YS02001759           JUNCTION    262.15   539.40     0  02:12        2.42         4.1       0.557
  YS02001887           JUNCTION    333.12   345.23     0  02:08        2.79        2.82       0.285
  YS02001890           JUNCTION      0.00   342.87     0  02:11           0        2.77       0.319
  YS02001898           JUNCTION      0.00   348.92     0  02:12           0        2.76       0.091
  YS02001901           JUNCTION      0.00   338.20     0  02:12           0        2.76       0.241
  YS02001904           JUNCTION      0.00   337.68     0  02:12           0        2.76       0.215
  YS02001907           JUNCTION      0.00   619.80     0  02:33           0        6.14       0.373
  YS02001910           JUNCTION      0.00   320.15     0  03:05           0        3.39       0.334
  YS02001915           JUNCTION    195.26   315.49     0  03:03        1.97         3.4       0.165
  YS02001918           JUNCTION      0.00   134.14     0  02:51           0        1.43       0.123
  YS02001619           JUNCTION    191.04   191.04     0  02:29        1.95        1.95       0.623
  YS02001629           JUNCTION      0.00   199.28     0  01:59           0        1.78       1.599
  YS02001641           JUNCTION      0.00   405.21     0  02:04           0           4       0.523
  YS02001644           JUNCTION    211.51   986.20     0  02:58        2.26        8.42       0.311
  YS02001652           JUNCTION      0.00   317.66     0  02:03           0        2.03       1.108
  YS02001655           JUNCTION      0.15   459.53     0  01:57     0.00434        2.06       1.242
  YS02001920           JUNCTION      2.87   131.76     0  02:51      0.0809        1.44       0.194
  YS02001923           JUNCTION      0.04   115.61     0  02:51     0.00106        1.36       0.051
  YS02001926           JUNCTION      0.05   122.76     0  02:52     0.00147        1.36       0.224
  YS02001929           JUNCTION    105.11   105.11     0  02:59        1.36        1.36       0.037
  YS02001658           JUNCTION      0.00   642.98     0  02:04           0        2.09       1.103
  YS02001661           JUNCTION      0.00   634.45     0  02:22           0         2.8      -0.146
  YS02001664           JUNCTION    239.63   372.24     0  02:22        2.08         2.8       0.207
  YS02001622           JUNCTION      0.00   193.12     0  02:00           0        1.94       1.650
  YS02001633           JUNCTION    215.43   405.53     0  02:04        2.33        4.06       0.789
  YS02001649           JUNCTION      0.00   843.85     0  02:19           0        5.41       0.685
  YS02001757           JUNCTION      0.00  1571.19     0  02:18           0         9.5       0.980
  YS02001895           JUNCTION      0.00   345.68     0  02:07           0        2.77       0.182
  YS02001625           JUNCTION      0.00   199.44     0  01:59           0        1.91       2.093
  YS02163301           JUNCTION      0.00   217.70     0  02:04           0        1.77       1.354
  YS02163601           JUNCTION      0.11   405.64     0  02:04      0.0031        4.02       0.750
  YS02164001           JUNCTION      0.00   405.55     0  02:04           0           4       0.496
  YS02001647           JUNCTION      0.00   603.84     0  02:19           0        4.43       0.637
  YSB1154              JUNCTION     23.84    23.84     0  01:41       0.112       0.113       1.299
  YSB6556              JUNCTION      0.00    24.02     0  01:41           0       0.113       1.116
  YSB1174              JUNCTION     19.99    19.99     0  01:36       0.081      0.0815       1.597
  YSB1171              JUNCTION      0.00    43.60     0  01:40           0         0.2       3.265
  YS02006553           JUNCTION      0.00   619.74     0  02:32           0        6.13       0.239
  YS02006561           JUNCTION      0.00   899.04     0  02:31           0        8.64       0.008
  YS02006556           JUNCTION      0.00   619.69     0  02:33           0        6.14       0.181
  YS02006558           JUNCTION    286.64   899.41     0  02:31        2.56        8.67       0.059
  YS02001783           JUNCTION      0.00   899.08     0  02:30           0        8.64       0.024
  YS02001784           JUNCTION      1.06   900.16     0  02:30      0.0299        8.66       0.040
  YS02001786           JUNCTION      0.06   900.26     0  02:30     0.00159        8.66       0.037
  YS02001788           JUNCTION      0.07   900.24     0  02:30       0.002        8.66       0.021
  YS02001790           JUNCTION      0.15   900.50     0  02:30     0.00437        8.66       0.026
  YS02001791           JUNCTION      0.00   900.49     0  02:30           0        8.66       0.011
  YS02001793           JUNCTION      0.00   900.52     0  02:30           0        8.66      -0.001
  WS02004139           JUNCTION      0.32   380.32     0  05:02     0.00905        6.27       0.628
  WSC                  OUTFALL       0.00   823.12     0  02:05           0        15.4       0.000
  3                    OUTFALL       0.00   597.65     0  00:00           0        4.49       0.000
  4                    OUTFALL       0.00   208.20     0  02:00           0       0.343       0.000
  5                    OUTFALL       0.00     0.00     0  00:00           0           0       0.000 ltr
  JK-storage           STORAGE       0.00   900.60     0  02:30           0        8.81      -8.455
  CC-storage           STORAGE       0.00  1571.49     0  02:18           0        8.22       0.747
  XR-storage           STORAGE     560.10   560.10     0  02:30        9.63        10.2      -0.001
  
  
  **********************
  Node Surcharge Summary
  **********************
  
  Surcharging occurs when water rises above the top of the highest conduit.
  ---------------------------------------------------------------------
                                               Max. Height   Min. Depth
                                   Hours       Above Crown    Below Rim
  Node                 Type      Surcharged         Meters       Meters
  ---------------------------------------------------------------------
  WS02004404           JUNCTION        0.46          0.042        2.738
  WS02004406           JUNCTION        0.24          0.017        2.433
  WS02004405           JUNCTION        0.36          0.030        2.770
  WS02006109           JUNCTION        2.79          0.267        1.553
  WS02006110           JUNCTION        0.59          0.096        1.754
  WS02006112           JUNCTION        0.90          0.197        1.483
  WS02006230           JUNCTION        0.35          0.079        1.491
  WS02006231           JUNCTION        0.43          0.114        1.416
  WS02006232           JUNCTION        2.36          0.233        1.247
  WS02006234           JUNCTION        0.58          0.127        1.113
  WS02006235           JUNCTION        1.40          0.164        1.126
  WS02006238           JUNCTION        1.87          0.183        1.247
  WS02006240           JUNCTION        0.33          0.092        1.298
  WS02006242           JUNCTION        1.14          0.132        0.688
  WS02006243           JUNCTION        0.09          0.034        0.736
  WS02006247           JUNCTION        0.02          0.005        0.755
  WS02006239           JUNCTION        0.60          0.123        1.167
  WS02006252           JUNCTION        2.05          0.193        0.907
  WS02006256           JUNCTION        0.01          1.050        0.000
  WS02006228           JUNCTION        2.60          0.319        1.881
  YS02001748           JUNCTION        5.60          1.190        0.000
  YS02001751           JUNCTION        5.77          1.200        0.000
  YS02001754           JUNCTION        5.96          1.150        0.000
  YS02001762           JUNCTION        6.15          1.029        0.121
  YS02001765           JUNCTION        6.13          0.975        0.125
  YS02001767           JUNCTION        6.12          0.932        0.098
  YS02001770           JUNCTION        6.11          0.920        0.000
  YS02001774           JUNCTION        6.14          1.017        0.033
  YS02001779           JUNCTION        5.94          0.680        0.000
  YS02001882           JUNCTION        0.91          0.370        0.460
  YS02001884           JUNCTION        0.96          0.414        0.456
  YS02001759           JUNCTION        6.15          1.067        0.143
  YS02001887           JUNCTION        1.08          0.502        0.448
  YS02001890           JUNCTION        1.11          0.529        0.231
  YS02001898           JUNCTION        0.82          0.306        0.434
  YS02001901           JUNCTION        1.03          0.461        0.409
  YS02001904           JUNCTION        0.99          0.429        0.421
  YS02001907           JUNCTION        1.69          0.759        0.191
  YS02001910           JUNCTION        1.16          0.558        0.542
  YS02001915           JUNCTION        0.88          0.354        0.646
  YS02001619           JUNCTION        5.79          0.610        0.000
  YS02001629           JUNCTION        5.81          0.470        0.000
  YS02001641           JUNCTION        6.13          0.981        0.119
  YS02001644           JUNCTION        6.13          0.920        0.000
  YS02001652           JUNCTION        6.02          1.130        0.000
  YS02001655           JUNCTION        5.81          1.200        0.000
  YS02001920           JUNCTION        0.24          0.052        1.088
  YS02001658           JUNCTION        5.64          1.300        0.000
  YS02001661           JUNCTION        0.21          1.364        0.026
  YS02001622           JUNCTION        5.84          0.620        0.000
  YS02001633           JUNCTION        6.12          0.979        0.081
  YS02001649           JUNCTION        6.14          1.050        0.000
  YS02001757           JUNCTION        6.19          1.210        0.000
  YS02001895           JUNCTION        0.85          0.333        0.417
  YS02001625           JUNCTION        6.09          0.780        0.000
  YS02163301           JUNCTION        6.11          0.917        0.113
  YS02163601           JUNCTION        6.15          1.066        0.014
  YS02164001           JUNCTION        6.12          0.991        0.109
  YS02001647           JUNCTION        6.07          0.829        0.071
  YS02006553           JUNCTION        1.74          0.762        0.428
  YS02006561           JUNCTION        0.59          0.127        1.023
  YS02006556           JUNCTION        1.43          0.676        0.674
  YS02006558           JUNCTION        1.37          0.650        0.750
  YS02001783           JUNCTION        1.40          1.600        0.000
  YS02001784           JUNCTION        1.48          1.017        0.473
  YS02001786           JUNCTION        1.41          1.279        0.151
  YS02001788           JUNCTION        1.40          1.422        0.058
  YS02001790           JUNCTION        1.97          1.157        0.000
  YS02001791           JUNCTION        2.09          1.231        0.689
  YS02001793           JUNCTION        2.31          1.061        1.539
  
  
  *********************
  Node Flooding Summary
  *********************
  
  Flooding refers to all water that overflows a node, whether it ponds or not.
  --------------------------------------------------------------------------
                                                             Total   Maximum
                                 Maximum   Time of Max       Flood    Ponded
                        Hours       Rate    Occurrence      Volume     Depth
  Node                 Flooded       LPS   days hr:min    10^6 ltr    Meters
  --------------------------------------------------------------------------
  WS02006256              0.01    406.11      0  00:00       0.001     0.000
  YS02001748              0.01    195.44      0  02:08       0.000     0.000
  YS02001751              0.01    170.40      0  02:02       0.000     0.000
  YS02001754              0.01     14.54      0  02:05       0.000     0.000
  YS02001770              0.01      7.82      0  02:05       0.000     0.000
  YS02001779              2.49    288.55      0  03:01       0.876     0.000
  YS02001619              0.01     27.56      0  02:05       0.000     0.000
  YS02001629              0.01     34.67      0  02:05       0.000     0.000
  YS02001644              4.31    986.14      0  02:58       6.133     0.000
  YS02001652              0.01      5.37      0  02:43       0.000     0.000
  YS02001655              0.01    198.04      0  01:57       0.000     0.000
  YS02001658              0.01    153.64      0  02:04       0.000     0.000
  YS02001622              0.01     40.40      0  02:05       0.000     0.000
  YS02001649              0.09     43.37      0  02:24       0.005     0.000
  YS02001757              0.01     16.85      0  02:05       0.000     0.000
  YS02001625              0.91     48.72      0  02:29       0.103     0.000
  YS02001783              0.01    165.91      0  02:02       0.000     0.000
  YS02001790              0.01    145.25      0  02:01       0.000     0.000
  JK-storage              1.67    878.09      0  02:40       2.923     0.000
  XR-storage              3.72    537.59      0  02:10       3.163     0.000
  
  
  **********************
  Storage Volume Summary
  **********************
  
  --------------------------------------------------------------------------------------------------
                         Average     Avg  Evap Exfil       Maximum     Max    Time of Max    Maximum
                          Volume    Pcnt  Pcnt  Pcnt        Volume    Pcnt     Occurrence    Outflow
  Storage Unit           1000 m3    Full  Loss  Loss       1000 m3    Full    days hr:min        LPS
  --------------------------------------------------------------------------------------------------
  JK-storage               0.128      44     0     0         0.291     100       0  02:02     600.00
  CC-storage               3.153      20     0     0         3.834      24       0  04:02     400.00
  XR-storage               0.891      96     0     0         0.926     100       0  01:48     380.00
  
  
  ***********************
  Outfall Loading Summary
  ***********************
  
  -----------------------------------------------------------
                         Flow       Avg       Max       Total
                         Freq      Flow      Flow      Volume
  Outfall Node           Pcnt       LPS       LPS    10^6 ltr
  -----------------------------------------------------------
  WSC                   99.99    608.48    823.12      15.364
  3                     90.07    228.01    597.65       4.495
  4                     33.28     44.45    208.20       0.343
  5                      0.00      0.00      0.00       0.000
  -----------------------------------------------------------
  System                55.84    880.94   1272.59      20.202
  
  
  ********************
  Link Flow Summary
  ********************
  
  -----------------------------------------------------------------------------
                                 Maximum  Time of Max   Maximum    Max/    Max/
                                  |Flow|   Occurrence   |Veloc|    Full    Full
  Link                 Type          LPS  days hr:min     m/sec    Flow   Depth
  -----------------------------------------------------------------------------
  WS02003066WSF200     CONDUIT    639.77     0  01:50      2.91    0.11    0.25
  WS02006287WS02006284 CONDUIT    366.21     0  01:42      1.96    0.17    0.29
  WS02006284WS02006280 CONDUIT    366.27     0  01:42      2.20    0.15    0.26
  WS02006280WS02006229 CONDUIT    366.28     0  01:42      3.55    0.08    0.19
  WS02006229WS02006228 CONDUIT    638.11     0  01:43      1.27    2.11    1.00
  WS02006256WS02006235 CONDUIT    177.52     0  00:01      2.73    1.88    1.00
  WS02006253WS02006251 CONDUIT     87.84     0  01:48      0.58    0.26    0.99
  WS02006252WS02006251 CONDUIT    400.52     0  07:10      3.19    1.47    1.00
  WS02006251WS02006249 CONDUIT    458.12     0  02:00      1.21    1.32    0.96
  WS02006249WS02006248 CONDUIT    361.18     0  02:40      1.16    1.98    0.91
  WS02006248WS02006247 CONDUIT    356.27     0  02:40      1.12    0.78    0.96
  WS02006247WS02006245 CONDUIT    352.02     0  02:41      1.08    2.79    1.00
  WS02006245WS02006243 CONDUIT    348.12     0  02:41      1.09    1.03    1.00
  WS02006243WS02006242 CONDUIT    342.45     0  02:41      0.97    0.73    1.00
  WS02006242WS02006240 CONDUIT    331.55     0  02:41      0.92    1.32    1.00
  WS02006240WS02006239 CONDUIT    315.63     0  02:40      0.94    0.99    1.00
  WS02006239WS02006238 CONDUIT    310.32     0  07:21      0.86    0.99    1.00
  WS02006238WS02006235 CONDUIT    310.32     0  07:21      1.32    0.69    1.00
  WS02006235WS02006234 CONDUIT    391.45     0  05:01      1.04    4.13    1.00
  WS02006234WS02006232 CONDUIT    390.18     0  05:02      1.17    0.79    1.00
  WS02006232WS02006231 CONDUIT    390.07     0  05:02      1.06    0.82    1.00
  WS02006231WS02006230 CONDUIT    389.19     0  05:03      1.35    5.90    1.00
  WS02006230WS02006229 CONDUIT    399.28     0  05:03      1.04    8.89    1.00
  WS02006228WS02006109 CONDUIT    638.12     0  01:43      1.27    2.79    1.00
  WS02006116WS02004401 CONDUIT    646.17     0  01:47      0.84    0.89    0.94
  WS02006115WS02006116 CONDUIT    646.42     0  01:47      0.94    0.83    0.87
  WS02006113WS02006111 CONDUIT    671.39     0  01:44      2.60    0.80    0.51
  WS02006112WS02006115 CONDUIT    656.71     0  01:45      0.89    0.39    0.92
  WS02006111WS02006112 CONDUIT    638.73     0  01:47      1.72    0.30    0.70
  WS02006110WS02006113 CONDUIT    641.63     0  01:44      1.47    0.58    0.81
  WS02006109WS02006110 CONDUIT    639.32     0  01:43      1.27    1.23    1.00
  WS02004411WS02004412 CONDUIT    639.98     0  01:49      1.01    0.91    0.75
  WS02004401WS02004402 CONDUIT    644.97     0  01:47      0.83    0.77    0.96
  WS02004413WS02003067 CONDUIT    639.28     0  01:50      1.22    0.27    0.63
  WS02004412WS02004413 CONDUIT    639.39     0  01:49      0.92    0.43    0.83
  WS02004410WS02004411 CONDUIT    641.01     0  01:49      1.02    0.88    0.75
  WS02004409WS02004410 CONDUIT    642.52     0  01:48      1.05    0.83    0.74
  WS02004407WS02004409 CONDUIT    644.60     0  01:48      1.58    0.23    0.53
  WS02004406WS02004407 CONDUIT    644.92     0  01:48      1.17    0.29    0.66
  WS02004405WS02004406 CONDUIT    645.08     0  01:48      0.82    1.27    1.00
  WS02004404WS02004405 CONDUIT    644.97     0  01:47      0.82    6.32    1.00
  WS02004403WS02004404 CONDUIT    645.17     0  01:47      0.82    0.47    0.99
  WS02004402WS02004403 CONDUIT    644.76     0  01:48      0.83    0.93    0.97
  WS02004139WS02001211 CONDUIT    379.69     0  05:10      0.80    0.48    0.59
  WS02004138WS02004139 CONDUIT    380.00     0  05:02      3.34    0.08    0.43
  WS02003067WS02003066 CONDUIT    639.64     0  01:50      1.33    0.21    0.44
  WS02001213WS02003059 CONDUIT    385.18     0  05:10      0.80    0.64    0.74
  WS02001212WS02001213 CONDUIT    385.85     0  05:10      1.24    0.60    0.45
  WS02001211WS02001212 CONDUIT    386.35     0  05:10      0.76    0.30    0.63
  WS02003072WS02003073 CONDUIT    821.66     0  02:04      1.65    1.77    0.45
  WS02003069WS02003072 CONDUIT    821.72     0  02:04      1.55    0.40    0.47
  WS02003060WS02003069 CONDUIT    821.82     0  02:03      1.81    0.32    0.42
  WS02003059WS02003060 CONDUIT    384.45     0  05:11      0.83    0.25    0.63
  HS02004901HS02004770 CONDUIT     17.82     0  01:38      0.06    0.07    0.40
  HS02004876HS02004881 CONDUIT     67.33     0  01:43      0.89    0.72    0.11
  HS02004870HS02004876 CONDUIT     54.05     0  01:43      0.61    0.04    0.13
  HS02004842HS02004848 CONDUIT     10.09     0  01:58      0.05    0.01    0.30
  HS02004837HS02004842 CONDUIT     10.33     0  02:00      0.41    0.01    0.31
  HS02004830HS02004837 CONDUIT     38.21     0  01:51      0.54    0.04    0.10
  HS02004824HS02004830 CONDUIT     38.37     0  01:52      0.57    0.05    0.10
  HS02004817HS02004824 CONDUIT     71.73     0  01:54      0.22    0.03    0.46
  HS02004770HS02004777 CONDUIT     92.16     0  01:38      0.32    0.17    0.41
  HS02004799HS02004480 CONDUIT    230.85     0  01:40      0.78    0.29    0.42
  HS02004792HS02004799 CONDUIT    210.29     0  01:40      0.89    0.13    0.34
  HS02004788HS02004792 CONDUIT    122.00     0  01:40      1.02    0.08    0.17
  HS02004785HS02004788 CONDUIT     92.09     0  01:40      0.67    0.69    0.20
  HS02004777HS02004785 CONDUIT     91.99     0  01:39      0.39    0.11    0.34
  HS02004480HS02004478 CONDUIT    273.63     0  01:41      1.21    1.15    0.32
  HS02004479HS02004480 CONDUIT     43.48     0  01:42      0.30    0.04    0.41
  HS02004862HS02004870 CONDUIT     40.54     0  01:45      0.62    0.04    0.09
  HS02004848HS02004852 CONDUIT     17.93     0  01:51      0.42    0.02    0.06
  HS02004856HS02004862 CONDUIT     27.96     0  01:44      0.46    0.03    0.09
  HS02004852HS02004856 CONDUIT     17.92     0  01:52      0.22    0.02    0.12
  HS02004802HS02004478 CONDUIT     96.20     0  01:53      0.42    0.08    0.34
  HS02004478WS02006287 CONDUIT    366.22     0  01:42      1.67    0.10    0.24
  HS02004817HS02004807 CONDUIT     72.77     0  01:55      0.17    0.04    0.61
  HS02004807HS02004802 CONDUIT     95.92     0  01:53      0.36    0.18    0.39
  YS02001759YS02001757 CONDUIT    540.51     0  02:11      0.69    0.38    1.00
  YS02001762YS02001759 CONDUIT    279.67     0  02:11      0.36    0.32    1.00
  YS02001765YS02001762 CONDUIT    278.10     0  02:11      0.35    0.26    1.00
  YS02001770YS02001767 CONDUIT    275.18     0  02:12      0.42    1.09    1.00
  YS02001774YS02001770 CONDUIT    288.11     0  03:01      0.37    0.18    1.00
  YS02001779YS02001774 CONDUIT    288.60     0  03:01      0.37    0.15    1.00
  YS02001649YS02001757 CONDUIT    843.44     0  02:19      1.07    0.51    1.00
  YS02001767YS02001765 CONDUIT    276.70     0  02:12      0.38    0.35    1.00
  YS02006561YS02001783 CONDUIT    899.08     0  02:30      2.14    0.47    1.00
  YS02001783YS02001784 CONDUIT    899.10     0  02:30      1.79    1.24    1.00
  YS02001784YS02001785 CONDUIT    900.20     0  02:30      1.79    2.09    1.00
  YS02001788YS02001790 CONDUIT    900.34     0  02:30      2.31    0.66    1.00
  YS02001790YS02001791 CONDUIT    900.49     0  02:30      2.87    0.98    1.00
  YS02001791YS02001793 CONDUIT    900.52     0  02:30      5.74    0.39    1.00
  YS02001910YS02001907 CONDUIT    320.26     0  03:05      0.49    0.18    1.00
  YS02001786YS02001788 CONDUIT    900.17     0  02:30      2.23    1.73    1.00
  YS02001915YS02001910 CONDUIT    320.15     0  03:05      0.58    0.16    1.00
  YS02001918YS02001915 CONDUIT    144.41     0  03:07      0.44    0.08    1.00
  YS02001923YS02001920 CONDUIT    128.89     0  02:51      0.68    0.06    0.90
  YS02001926YS02001923 CONDUIT    115.57     0  02:51      0.78    0.17    0.60
  YS02001929YS02001926 CONDUIT    122.70     0  02:52      0.83    0.06    0.49
  YS02001920YS02001918 CONDUIT    134.14     0  02:51      0.67    0.13    1.00
  YS02001629YS02163301 CONDUIT    217.70     0  02:04      0.28    0.27    1.00
  YS02001619YS02001622 CONDUIT    193.12     0  02:00      0.73    0.28    1.00
  YS02001622YS02001625 CONDUIT    199.44     0  01:59      0.36    0.11    1.00
  YS02001625YS02001629 CONDUIT    199.28     0  01:59      0.30    0.09    1.00
  YS02163301YS02001633 CONDUIT    217.80     0  02:04      0.28    0.20    1.00
  YS02163601YS02164001 CONDUIT    405.55     0  02:04      0.52    0.36    1.00
  YS02164001YS02001641 CONDUIT    405.21     0  02:04      0.52    0.55    1.00
  YS02001641YS02001644 CONDUIT    404.88     0  02:04      0.52    1.31    1.00
  YS02001647YS02001649 CONDUIT    604.33     0  02:19      0.77    0.32    1.00
  YS02006553YS02006556 CONDUIT    619.69     0  02:33      0.79    0.53    1.00
  YS02006556YS02006558 CONDUIT    619.88     0  02:33      0.79    0.49    1.00
  YSB6556YSB1171       CONDUIT     24.43     0  01:43      0.09    0.03    0.68
  YS02001907YS02006553 CONDUIT    619.74     0  02:32      0.69    0.73    1.00
  YS02006558YS02006561 CONDUIT    899.04     0  02:31      3.18    1.99    1.00
  YS02001633YS02163601 CONDUIT    405.53     0  02:04      0.52    0.43    1.00
  YS02001644YS02001647 CONDUIT    603.84     0  02:19      0.77    0.35    1.00
  YS02001745YS02001748 CONDUIT    619.71     0  02:06      1.65    0.24    0.94
  YS02001748YS02001751 CONDUIT    400.13     0  01:59      1.23    0.20    1.00
  YS02001751YS02001754 CONDUIT    254.91     0  02:08      1.05    0.12    1.00
  YS02001754YS02001757 CONDUIT    252.43     0  02:06      0.33    0.10    1.00
  YS02001882YS02001884 CONDUIT     26.79     0  02:04      0.15    0.03    1.00
  YS02001884YS02001887 CONDUIT     56.38     0  02:04      0.11    0.08    1.00
  YS02001890YS02001895 CONDUIT    345.68     0  02:07      0.47    0.16    1.00
  YS02001895YS02001898 CONDUIT    348.92     0  02:12      0.59    0.61    1.00
  YS02001898YS02001901 CONDUIT    338.20     0  02:12      0.51    0.22    1.00
  YS02001901YS02001904 CONDUIT    337.68     0  02:12      0.47    0.52    1.00
  YS02001904YS02001907 CONDUIT    336.79     0  02:12      0.43    0.12    1.00
  YS02001887YS02001890 CONDUIT    342.87     0  02:11      0.44    0.59    1.00
  YS02001652YS02001649 CONDUIT    317.63     0  02:03      0.61    0.16    1.00
  YS02001655YS02001652 CONDUIT    317.66     0  02:03      1.11    0.15    1.00
  YS02001658YS02001655 CONDUIT    459.38     0  01:57      1.42    0.19    1.00
  YS02001661YS02001658 CONDUIT    642.98     0  02:04      1.73    0.25    1.00
  YS02001664YS02001661 CONDUIT    634.45     0  02:22      1.64    0.20    0.72
  YSB1154YSB6556       CONDUIT     24.02     0  01:41      0.16    0.04    0.57
  YSB1174YSB1171       CONDUIT     20.02     0  01:36      0.07    0.03    0.68
  YSB1171HS02004479    CONDUIT     43.17     0  01:41      0.54    0.03    0.54
  HS02004881HS02006253 CONDUIT     74.61     0  01:43      2.12    0.01    0.30
  YS02001793JiankangQianchi CONDUIT    900.60     0  02:30     15.00    0.07    1.00
  YS02001757CaochengTiaoxuchi CONDUIT   1571.49     0  02:18      2.47    0.69    1.00
  WSF200WS02003060     CONDUIT    640.49     0  01:50      2.06    0.14    0.34
  1                    CONDUIT    823.12     0  02:05      3.16    0.29    0.37
  2                    CONDUIT    208.20     0  02:00      5.90    0.50    0.50
  3                    CONDUIT    597.65     0  00:00     10.05    0.95    0.86
  4                    CONDUIT      0.00     0  00:00      0.00    0.00    0.00
  CC-Pump-1            PUMP       200.00     0  01:35              1.00
  CC-Pump-2            PUMP       200.00     0  04:30              1.00
  JK-Pump-1            PUMP       300.00     0  00:00              1.00
  JK-Pump-2            PUMP       300.00     0  00:00              1.00
  XR-Pump-1            PUMP        95.00     0  00:00              1.00
  XR-Pump-2            PUMP        95.00     0  00:00              1.00
  XR-Pump-3            PUMP        95.00     0  00:40              1.00
  XR-Pump-4            PUMP        95.00     0  00:00              1.00
  
  
  ***************************
  Flow Classification Summary
  ***************************
  
  -------------------------------------------------------------------------------------
                      Adjusted    ---------- Fraction of Time in Flow Class ---------- 
                       /Actual         Up    Down  Sub   Sup   Up    Down  Norm  Inlet 
  Conduit               Length    Dry  Dry   Dry   Crit  Crit  Crit  Crit  Ltd   Ctrl  
  -------------------------------------------------------------------------------------
  WS02003066WSF200        1.00   0.07  0.00  0.00  0.00  0.93  0.00  0.00  0.67  0.00
  WS02006287WS02006284    1.00   0.03  0.01  0.00  0.60  0.36  0.00  0.00  0.72  0.00
  WS02006284WS02006280    1.00   0.03  0.00  0.00  0.00  0.00  0.00  0.97  0.00  0.00
  WS02006280WS02006229    1.00   0.03  0.00  0.00  0.00  0.00  0.00  0.97  0.00  0.00
  WS02006229WS02006228    1.00   0.00  0.00  0.00  0.99  0.00  0.00  0.01  0.00  0.00
  WS02006256WS02006235    1.00   0.00  0.00  0.00  1.00  0.00  0.00  0.00  0.00  0.00
  WS02006253WS02006251    1.00   0.02  0.01  0.00  0.97  0.00  0.00  0.00  0.00  0.00
  WS02006252WS02006251    1.00   0.05  0.00  0.00  0.00  0.00  0.95  0.00  0.00  0.00
  WS02006251WS02006249    1.00   0.00  0.00  0.00  1.00  0.00  0.00  0.00  0.18  0.00
  WS02006249WS02006248    1.00   0.00  0.01  0.00  0.93  0.00  0.05  0.00  0.00  0.00
  WS02006248WS02006247    1.00   0.02  0.00  0.00  0.98  0.00  0.00  0.01  0.06  0.00
  WS02006247WS02006245    1.00   0.02  0.00  0.00  0.97  0.00  0.00  0.02  0.00  0.00
  WS02006245WS02006243    1.00   0.01  0.00  0.00  0.96  0.00  0.00  0.02  0.02  0.00
  WS02006243WS02006242    1.00   0.01  0.00  0.00  0.99  0.00  0.00  0.00  0.16  0.00
  WS02006242WS02006240    1.00   0.00  0.00  0.00  0.99  0.00  0.00  0.00  0.00  0.00
  WS02006240WS02006239    1.00   0.00  0.00  0.00  0.97  0.00  0.00  0.03  0.02  0.00
  WS02006239WS02006238    1.00   0.00  0.00  0.00  1.00  0.00  0.00  0.00  0.00  0.00
  WS02006238WS02006235    1.00   0.00  0.00  0.00  1.00  0.00  0.00  0.00  0.00  0.00
  WS02006235WS02006234    1.00   0.00  0.00  0.00  0.97  0.00  0.03  0.00  0.00  0.00
  WS02006234WS02006232    1.00   0.00  0.00  0.00  1.00  0.00  0.00  0.00  0.03  0.00
  WS02006232WS02006231    1.00   0.00  0.00  0.00  0.99  0.00  0.01  0.00  0.00  0.00
  WS02006231WS02006230    1.00   0.00  0.00  0.00  0.74  0.00  0.26  0.00  0.00  0.00
  WS02006230WS02006229    1.00   0.00  0.00  0.00  0.99  0.00  0.00  0.01  0.01  0.00
  WS02006228WS02006109    1.00   0.00  0.00  0.00  1.00  0.00  0.00  0.00  0.00  0.00
  WS02006116WS02004401    1.00   0.02  0.00  0.00  0.98  0.00  0.00  0.00  0.00  0.00
  WS02006115WS02006116    1.00   0.02  0.00  0.00  0.97  0.00  0.00  0.01  0.01  0.00
  WS02006113WS02006111    1.00   0.02  0.00  0.00  0.00  0.98  0.00  0.00  0.11  0.00
  WS02006112WS02006115    1.00   0.02  0.00  0.00  0.98  0.00  0.00  0.00  0.00  0.00
  WS02006111WS02006112    1.00   0.02  0.00  0.00  0.98  0.00  0.00  0.00  0.94  0.00
  WS02006110WS02006113    1.00   0.01  0.00  0.00  0.98  0.00  0.00  0.00  0.00  0.00
  WS02006109WS02006110    1.00   0.00  0.01  0.00  0.98  0.00  0.00  0.00  0.00  0.00
  WS02004411WS02004412    1.00   0.04  0.00  0.00  0.96  0.00  0.00  0.00  0.00  0.00
  WS02004401WS02004402    1.00   0.02  0.00  0.00  0.98  0.00  0.00  0.00  0.00  0.00
  WS02004413WS02003067    1.00   0.05  0.01  0.00  0.00  0.00  0.94  0.00  0.00  0.00
  WS02004412WS02004413    1.00   0.04  0.00  0.00  0.95  0.00  0.00  0.00  0.00  0.00
  WS02004410WS02004411    1.00   0.04  0.00  0.00  0.96  0.00  0.00  0.00  0.00  0.00
  WS02004409WS02004410    1.00   0.04  0.00  0.00  0.96  0.00  0.00  0.00  0.00  0.00
  WS02004407WS02004409    1.00   0.04  0.00  0.00  0.94  0.01  0.00  0.00  0.81  0.00
  WS02004406WS02004407    1.00   0.00  0.04  0.00  0.96  0.00  0.00  0.00  0.00  0.00
  WS02004405WS02004406    1.00   0.00  0.00  0.00  1.00  0.00  0.00  0.00  0.02  0.00
  WS02004404WS02004405    1.00   0.00  0.00  0.00  1.00  0.00  0.00  0.00  0.00  0.00
  WS02004403WS02004404    1.00   0.00  0.02  0.00  0.98  0.00  0.00  0.00  0.02  0.00
  WS02004402WS02004403    1.00   0.02  0.00  0.00  0.98  0.00  0.00  0.00  0.00  0.00
  WS02004139WS02001211    1.00   0.00  0.00  0.00  0.99  0.00  0.00  0.00  0.00  0.00
  WS02004138WS02004139    1.00   0.00  0.00  0.00  0.99  0.01  0.00  0.00  1.00  0.00
  WS02003067WS02003066    1.00   0.06  0.01  0.00  0.94  0.00  0.00  0.00  0.00  0.00
  WS02001213WS02003059    1.00   0.00  0.00  0.00  0.99  0.00  0.00  0.00  0.00  0.00
  WS02001212WS02001213    1.00   0.00  0.00  0.00  0.90  0.00  0.09  0.00  0.00  0.00
  WS02001211WS02001212    1.00   0.00  0.00  0.00  1.00  0.00  0.00  0.00  0.00  0.00
  WS02003072WS02003073    1.00   0.00  0.00  0.00  0.00  0.00  0.00  1.00  0.00  0.00
  WS02003069WS02003072    1.00   0.00  0.00  0.00  0.99  0.01  0.00  0.00  0.20  0.00
  WS02003060WS02003069    1.00   0.00  0.00  0.00  0.98  0.02  0.00  0.00  0.15  0.00
  WS02003059WS02003060    1.00   0.00  0.00  0.00  0.99  0.01  0.00  0.00  0.01  0.00
  HS02004901HS02004770    1.00   0.03  0.00  0.00  0.97  0.00  0.00  0.00  0.00  0.00
  HS02004876HS02004881    1.00   0.02  0.00  0.00  0.89  0.09  0.00  0.00  0.00  0.00
  HS02004870HS02004876    1.00   0.01  0.00  0.00  0.99  0.00  0.00  0.00  0.95  0.00
  HS02004842HS02004848    1.00   0.00  0.03  0.00  0.97  0.00  0.00  0.00  0.59  0.00
  HS02004837HS02004842    1.00   0.00  0.00  0.00  0.99  0.01  0.00  0.00  0.11  0.00
  HS02004830HS02004837    1.00   0.00  0.00  0.00  1.00  0.00  0.00  0.00  0.99  0.00
  HS02004824HS02004830    1.00   0.00  0.00  0.00  1.00  0.00  0.00  0.00  0.00  0.00
  HS02004817HS02004824    1.00   0.00  0.00  0.00  1.00  0.00  0.00  0.00  1.00  0.00
  HS02004770HS02004777    1.00   0.00  0.03  0.00  0.97  0.00  0.00  0.00  0.02  0.00
  HS02004799HS02004480    1.00   0.00  0.01  0.00  0.96  0.00  0.02  0.00  0.00  0.00
  HS02004792HS02004799    1.00   0.00  0.00  0.00  0.99  0.01  0.00  0.00  0.98  0.00
  HS02004788HS02004792    1.00   0.00  0.00  0.00  0.99  0.01  0.00  0.00  0.98  0.00
  HS02004785HS02004788    1.00   0.00  0.00  0.00  1.00  0.00  0.00  0.00  0.00  0.00
  HS02004777HS02004785    1.00   0.00  0.00  0.00  1.00  0.00  0.00  0.00  0.12  0.00
  HS02004480HS02004478    1.00   0.03  0.00  0.00  0.66  0.00  0.00  0.31  0.00  0.00
  HS02004479HS02004480    1.00   0.02  0.00  0.00  0.98  0.00  0.00  0.00  0.11  0.00
  HS02004862HS02004870    1.00   0.00  0.00  0.00  1.00  0.00  0.00  0.00  0.03  0.00
  HS02004848HS02004852    1.00   0.03  0.00  0.00  0.97  0.00  0.00  0.00  0.78  0.00
  HS02004856HS02004862    1.00   0.00  0.04  0.00  0.96  0.00  0.00  0.00  0.83  0.00
  HS02004852HS02004856    1.00   0.03  0.00  0.00  0.97  0.00  0.00  0.00  0.86  0.00
  HS02004802HS02004478    1.00   0.03  0.00  0.00  0.97  0.00  0.00  0.00  0.02  0.00
  HS02004478WS02006287    1.00   0.04  0.00  0.00  0.75  0.21  0.00  0.00  0.69  0.00
  HS02004817HS02004807    1.00   0.00  0.03  0.00  0.97  0.00  0.00  0.00  0.01  0.00
  HS02004807HS02004802    1.00   0.03  0.00  0.00  0.96  0.00  0.00  0.00  0.00  0.00
  YS02001759YS02001757    1.00   0.00  0.00  0.00  1.00  0.00  0.00  0.00  0.16  0.00
  YS02001762YS02001759    1.00   0.00  0.00  0.00  1.00  0.00  0.00  0.00  0.03  0.00
  YS02001765YS02001762    1.00   0.00  0.00  0.00  1.00  0.00  0.00  0.00  0.13  0.00
  YS02001770YS02001767    1.00   0.00  0.00  0.00  1.00  0.00  0.00  0.00  0.00  0.00
  YS02001774YS02001770    1.00   0.00  0.03  0.00  0.97  0.00  0.00  0.00  0.03  0.00
  YS02001779YS02001774    1.00   0.00  0.00  0.00  1.00  0.00  0.00  0.00  0.17  0.00
  YS02001649YS02001757    1.00   0.00  0.00  0.00  1.00  0.00  0.00  0.00  0.16  0.00
  YS02001767YS02001765    1.00   0.00  0.00  0.00  1.00  0.00  0.00  0.00  0.00  0.00
  YS02006561YS02001783    1.00   0.04  0.00  0.00  0.33  0.63  0.00  0.00  0.54  0.00
  YS02001783YS02001784    1.00   0.00  0.04  0.00  0.96  0.00  0.00  0.00  0.00  0.00
  YS02001784YS02001785    1.00   0.00  0.00  0.00  1.00  0.00  0.00  0.00  0.16  0.00
  YS02001788YS02001790    1.00   0.00  0.00  0.00  0.39  0.61  0.00  0.00  0.52  0.00
  YS02001790YS02001791    1.00   0.00  0.00  0.00  0.37  0.63  0.00  0.00  0.49  0.00
  YS02001791YS02001793    1.00   0.00  0.00  0.00  0.38  0.62  0.00  0.00  0.02  0.00
  YS02001910YS02001907    1.00   0.00  0.00  0.00  0.98  0.00  0.00  0.02  0.12  0.00
  YS02001786YS02001788    1.00   0.00  0.00  0.00  0.36  0.64  0.00  0.00  0.00  0.00
  YS02001915YS02001910    1.00   0.00  0.00  0.00  0.99  0.01  0.00  0.00  0.14  0.00
  YS02001918YS02001915    1.00   0.00  0.01  0.00  0.99  0.00  0.00  0.00  0.57  0.00
  YS02001923YS02001920    1.00   0.00  0.00  0.00  1.00  0.00  0.00  0.00  0.83  0.00
  YS02001926YS02001923    1.00   0.00  0.02  0.00  0.14  0.00  0.83  0.00  0.00  0.00
  YS02001929YS02001926    1.00   0.00  0.03  0.00  0.97  0.00  0.00  0.00  0.79  0.00
  YS02001920YS02001918    1.00   0.00  0.01  0.00  0.99  0.00  0.00  0.00  0.00  0.00
  YS02001629YS02163301    1.00   0.04  0.00  0.00  0.96  0.00  0.00  0.00  0.00  0.00
  YS02001619YS02001622    1.00   0.03  0.00  0.00  0.97  0.00  0.00  0.00  0.00  0.00
  YS02001622YS02001625    1.00   0.03  0.00  0.00  0.97  0.00  0.00  0.00  0.04  0.00
  YS02001625YS02001629    1.00   0.03  0.01  0.00  0.95  0.00  0.01  0.00  0.00  0.00
  YS02163301YS02001633    1.00   0.00  0.04  0.00  0.96  0.00  0.00  0.00  0.00  0.00
  YS02163601YS02164001    1.00   0.00  0.03  0.00  0.97  0.00  0.00  0.00  0.00  0.00
  YS02164001YS02001641    1.00   0.01  0.01  0.00  0.97  0.00  0.00  0.00  0.06  0.00
  YS02001641YS02001644    1.00   0.00  0.01  0.00  0.99  0.00  0.00  0.00  0.00  0.00
  YS02001647YS02001649    1.00   0.00  0.04  0.00  0.96  0.00  0.00  0.00  0.01  0.00
  YS02006553YS02006556    1.00   0.01  0.00  0.00  0.99  0.00  0.00  0.00  0.03  0.00
  YS02006556YS02006558    1.00   0.00  0.00  0.00  1.00  0.00  0.00  0.00  0.00  0.00
  YSB6556YSB1171          1.00   0.02  0.01  0.00  0.97  0.00  0.00  0.00  0.00  0.00
  YS02001907YS02006553    1.00   0.00  0.01  0.00  0.98  0.00  0.00  0.00  0.00  0.00
  YS02006558YS02006561    1.00   0.04  0.00  0.00  0.18  0.78  0.00  0.00  0.50  0.00
  YS02001633YS02163601    1.00   0.00  0.01  0.00  0.99  0.00  0.00  0.00  0.15  0.00
  YS02001644YS02001647    1.00   0.00  0.04  0.00  0.96  0.00  0.00  0.00  0.00  0.00
  YS02001745YS02001748    1.00   0.00  0.00  0.00  0.92  0.00  0.00  0.07  0.03  0.00
  YS02001748YS02001751    1.00   0.00  0.00  0.00  0.98  0.02  0.00  0.00  0.14  0.00
  YS02001751YS02001754    1.00   0.00  0.00  0.00  0.96  0.00  0.00  0.04  0.01  0.00
  YS02001754YS02001757    1.00   0.00  0.00  0.00  0.99  0.01  0.00  0.00  0.17  0.00
  YS02001882YS02001884    1.00   0.04  0.00  0.00  0.96  0.00  0.00  0.00  0.00  0.00
  YS02001884YS02001887    1.00   0.02  0.01  0.00  0.97  0.00  0.00  0.00  0.00  0.00
  YS02001890YS02001895    1.00   0.00  0.03  0.00  0.96  0.00  0.00  0.00  0.00  0.00
  YS02001895YS02001898    1.00   0.04  0.00  0.00  0.96  0.00  0.00  0.00  0.00  0.00
  YS02001898YS02001901    1.00   0.04  0.00  0.00  0.96  0.00  0.00  0.00  0.01  0.00
  YS02001901YS02001904    1.00   0.04  0.00  0.00  0.96  0.00  0.00  0.00  0.00  0.00
  YS02001904YS02001907    1.00   0.00  0.03  0.00  0.96  0.00  0.00  0.00  0.00  0.00
  YS02001887YS02001890    1.00   0.00  0.00  0.00  0.98  0.00  0.01  0.00  0.00  0.00
  YS02001652YS02001649    1.00   0.00  0.00  0.00  1.00  0.00  0.00  0.00  0.15  0.00
  YS02001655YS02001652    1.00   0.00  0.00  0.00  0.96  0.00  0.00  0.04  0.01  0.00
  YS02001658YS02001655    1.00   0.00  0.03  0.00  0.95  0.02  0.00  0.00  0.02  0.00
  YS02001661YS02001658    1.00   0.03  0.00  0.00  0.92  0.04  0.00  0.00  0.03  0.00
  YS02001664YS02001661    1.00   0.03  0.00  0.00  0.89  0.08  0.00  0.00  0.15  0.00
  YSB1154YSB6556          1.00   0.03  0.00  0.00  0.97  0.00  0.00  0.00  0.01  0.00
  YSB1174YSB1171          1.00   0.02  0.01  0.00  0.97  0.00  0.00  0.00  0.00  0.00
  YSB1171HS02004479       1.00   0.02  0.00  0.00  0.98  0.00  0.00  0.00  0.10  0.00
  HS02004881HS02006253    1.00   0.02  0.00  0.00  0.77  0.03  0.00  0.17  0.66  0.00
  YS02001793JiankangQianchi    1.00   0.00  0.00  0.00  0.58  0.42  0.00  0.00  0.18  0.00
  YS02001757CaochengTiaoxuchi    1.00   0.00  0.05  0.00  0.92  0.03  0.00  0.00  0.00  0.00
  WSF200WS02003060        1.00   0.00  0.07  0.00  0.63  0.30  0.00  0.00  0.09  0.00
  1                       1.00   0.00  0.00  0.00  0.00  1.00  0.00  0.00  0.33  0.00
  2                       1.00   0.66  0.00  0.00  0.00  0.34  0.00  0.00  0.09  0.00
  3                       1.00   0.10  0.00  0.00  0.00  0.90  0.00  0.00  0.04  0.00
  4                       1.00   1.00  0.00  0.00  0.00  0.00  0.00  0.00  0.00  0.00
  
  
  *************************
  Conduit Surcharge Summary
  *************************
  
  ----------------------------------------------------------------------------
                                                           Hours        Hours 
                         --------- Hours Full --------   Above Full   Capacity
  Conduit                Both Ends  Upstream  Dnstream   Normal Flow   Limited
  ----------------------------------------------------------------------------
  WS02006229WS02006228        2.60      3.00      2.60      5.36         2.59
  WS02006256WS02006235        6.36      6.36      7.61      3.48         0.01
  WS02006253WS02006251        0.01      0.01      0.03      0.01         0.01
  WS02006252WS02006251        0.95      0.95      2.05      1.77         0.01
  WS02006251WS02006249        0.01      0.01      0.01      0.99         0.01
  WS02006249WS02006248        0.01      0.01      0.01      4.73         0.01
  WS02006248WS02006247        0.01      0.01      0.02      0.01         0.01
  WS02006247WS02006245        0.01      0.04      0.01      5.16         0.01
  WS02006245WS02006243        0.03      0.03      0.09      0.03         0.01
  WS02006243WS02006242        0.12      0.12      1.14      0.01         0.01
  WS02006242WS02006240        0.33      0.33      1.70      1.96         0.01
  WS02006240WS02006239        0.43      0.43      0.60      0.01         0.01
  WS02006239WS02006238        1.63      1.63      1.87      0.01         0.01
  WS02006238WS02006235        1.70      1.70      2.22      0.01         0.01
  WS02006235WS02006234        0.58      0.58      1.40      6.38         0.01
  WS02006234WS02006232        0.75      0.75      2.36      0.01         0.01
  WS02006232WS02006231        0.43      0.43      2.36      0.01         0.01
  WS02006231WS02006230        0.35      0.35      0.47      6.34         0.01
  WS02006230WS02006229        4.19      5.12      4.19      6.41         4.19
  WS02006228WS02006109        2.79      3.69      2.79      5.88         2.79
  WS02006112WS02006115        0.01      0.01      0.90      0.01         0.01
  WS02006111WS02006112        0.01      0.01      5.43      0.01         0.01
  WS02006110WS02006113        0.01      0.01      3.28      0.01         0.01
  WS02006109WS02006110        0.59      0.59      3.70      0.59         0.01
  WS02004406WS02004407        0.01      0.01      0.24      0.01         0.01
  WS02004405WS02004406        0.24      0.36      0.24      0.75         0.24
  WS02004404WS02004405        0.36      0.46      0.36      6.32         0.36
  WS02004403WS02004404        0.01      0.01      0.46      0.01         0.01
  WS02003072WS02003073        0.01      0.01      0.01      5.91         0.01
  HS02004480HS02004478        0.01      0.01      0.01      0.41         0.01
  YS02001759YS02001757        6.15      6.15      6.19      0.01         0.01
  YS02001762YS02001759        6.15      6.15      6.15      0.01         0.01
  YS02001765YS02001762        6.13      6.13      6.15      0.01         0.01
  YS02001770YS02001767        6.12      6.13      6.12      0.37         0.81
  YS02001774YS02001770        6.11      6.11      6.14      0.01         0.01
  YS02001779YS02001774        5.94      5.94      6.14      0.01         0.01
  YS02001649YS02001757        6.14      6.14      6.19      0.01         0.01
  YS02001767YS02001765        6.12      6.12      6.13      0.01         0.01
  YS02006561YS02001783        0.59      0.59      1.40      0.01         0.01
  YS02001783YS02001784        1.40      1.40      1.48      1.35         1.16
  YS02001784YS02001785        1.41      1.48      1.41      2.23         1.41
  YS02001788YS02001790        1.40      1.40      1.97      0.01         0.01
  YS02001790YS02001791        1.97      1.97      2.09      0.01         0.03
  YS02001791YS02001793        2.09      2.09      2.38      0.01         0.01
  YS02001910YS02001907        1.16      1.16      1.69      0.01         0.01
  YS02001786YS02001788        1.40      1.41      1.40      1.90         1.40
  YS02001915YS02001910        0.88      0.88      1.16      0.01         0.01
  YS02001918YS02001915        0.01      0.01      0.88      0.01         0.01
  YS02001923YS02001920        0.01      0.01      0.24      0.01         0.01
  YS02001920YS02001918        0.01      0.01      0.24      0.01         0.01
  YS02001629YS02163301        6.10      6.10      6.11      0.01         0.01
  YS02001619YS02001622        5.79      5.79      5.84      0.01         0.01
  YS02001622YS02001625        5.84      5.84      6.09      0.01         0.01
  YS02001625YS02001629        5.81      5.81      6.09      0.01         0.01
  YS02163301YS02001633        6.11      6.11      6.12      0.01         0.01
  YS02163601YS02164001        6.12      6.12      6.15      0.01         0.01
  YS02164001YS02001641        6.12      6.12      6.13      0.01         0.03
  YS02001641YS02001644        6.13      6.13      6.13      1.40         1.42
  YS02001647YS02001649        6.07      6.07      6.14      0.01         0.01
  YS02006553YS02006556        1.43      1.43      1.74      0.01         0.01
  YS02006556YS02006558        1.59      1.59      1.80      0.01         0.01
  YS02001907YS02006553        2.24      2.24      2.42      0.01         0.01
  YS02006558YS02006561        1.04      1.37      1.04      2.09         1.04
  YS02001633YS02163601        6.12      6.12      6.15      0.01         0.01
  YS02001644YS02001647        6.07      6.07      6.13      0.01         0.01
  YS02001745YS02001748        0.01      0.01      5.60      0.01         0.01
  YS02001748YS02001751        5.67      5.67      5.77      0.01         0.01
  YS02001751YS02001754        5.77      5.77      5.96      0.01         0.01
  YS02001754YS02001757        6.04      6.04      6.19      0.01         0.01
  YS02001882YS02001884        0.91      0.91      0.96      0.01         0.01
  YS02001884YS02001887        1.03      1.03      1.08      0.01         0.01
  YS02001890YS02001895        0.85      0.85      1.19      0.01         0.01
  YS02001895YS02001898        0.82      0.82      0.85      0.01         0.01
  YS02001898YS02001901        0.87      0.87      1.03      0.01         0.01
  YS02001901YS02001904        0.99      0.99      1.03      0.01         0.01
  YS02001904YS02001907        0.99      0.99      1.76      0.01         0.01
  YS02001887YS02001890        1.11      1.11      1.15      0.01         0.01
  YS02001652YS02001649        6.07      6.07      6.14      0.01         0.01
  YS02001655YS02001652        5.81      5.81      6.02      0.01         0.01
  YS02001658YS02001655        5.64      5.64      5.81      0.01         0.01
  YS02001661YS02001658        0.19      0.19      5.64      0.01         0.01
  YS02001664YS02001661        0.01      0.01      1.12      0.01         0.01
  YS02001793JiankangQianchi        2.31      2.31      3.26      0.01         0.01
  YS02001757CaochengTiaoxuchi        5.49      5.49      6.19      0.01         0.01
  3                           0.01      0.01      0.01      0.01         0.01
  
  
  ***************
  Pumping Summary
  ***************
  
  ---------------------------------------------------------------------------------------------------------
                                                  Min       Avg       Max     Total     Power    % Time Off
                        Percent   Number of      Flow      Flow      Flow    Volume     Usage    Pump Curve
  Pump                 Utilized   Start-Ups       LPS       LPS       LPS  10^6 ltr     Kw-hr    Low   High
  ---------------------------------------------------------------------------------------------------------
  CC-Pump-1               67.60           7      0.00    143.22    200.00     2.710      3.34    0.0    7.4
  CC-Pump-2               55.31           6      0.00    132.88    200.00     2.040      2.34    0.0    2.2
  JK-Pump-1               80.85           6      0.00    159.18    300.00     2.794     35.76    0.0    0.0
  JK-Pump-2               82.99           6      0.00    201.09    300.00     3.909     43.70    0.0    0.0
  XR-Pump-1               89.34           9      0.00     69.04     95.00     1.682     10.19    0.0    0.0
  XR-Pump-2               80.84           9      0.00     70.67     95.00     1.596     10.27    0.0    0.0
  XR-Pump-3               80.84           7      0.00     77.35     95.00     1.738     10.08    0.0    0.0
  XR-Pump-4               70.21           8      0.00     64.66     95.00     1.254      8.83    0.0    0.0
  

  Analysis begun on:  Mon Dec 20 20:19:44 2021
  Analysis ended on:  Mon Dec 20 20:19:48 2021
  Total elapsed time: 00:00:04