
  EPA STORM WATER MANAGEMENT MODEL - VERSION 5.1 (Build 5.3.0.dev0)
  --------------------------------------------------------------

  WARNING 04: minimum elevation drop used for Conduit WS02004404WS02004405
  WARNING 03: negative offset ignored for Link YS02001904YS02001907
  
  *********************************************************
  NOTE: The summary statistics displayed in this report are
  based on results found at every computational time step,  
  not just on results from each reporting time step.
  *********************************************************
  
  ****************
  Analysis Options
  ****************
  Flow Units ............... LPS
  Process Models:
    Rainfall/Runoff ........ YES
    RDII ................... NO
    Snowmelt ............... NO
    Groundwater ............ NO
    Flow Routing ........... YES
    Ponding Allowed ........ NO
    Water Quality .......... NO
  Infiltration Method ...... HORTON
  Flow Routing Method ...... DYNWAVE
  Surcharge Method ......... EXTRAN
  Starting Date ............ 08/28/2015 08:00:00
  Ending Date .............. 08/28/2015 15:50:00
  Antecedent Dry Days ...... 8.0
  Report Time Step ......... 00:01:00
  Wet Time Step ............ 00:01:00
  Dry Time Step ............ 00:01:00
  Routing Time Step ........ 5.00 sec
  Variable Time Step ....... YES
  Maximum Trials ........... 8
  Number of Threads ........ 4
  Head Tolerance ........... 0.001500 m
  
  
  **************************        Volume         Depth
  Runoff Quantity Continuity     hectare-m            mm
  **************************     ---------       -------
  Total Precipitation ......         4.854        10.627
  Evaporation Loss .........         0.000         0.000
  Infiltration Loss ........         1.246         2.727
  Surface Runoff ...........         2.607         5.707
  Final Storage ............         1.002         2.194
  Continuity Error (%) .....        -0.015
  
  
  **************************        Volume        Volume
  Flow Routing Continuity        hectare-m      10^6 ltr
  **************************     ---------     ---------
  Dry Weather Inflow .......         0.616         6.165
  Wet Weather Inflow .......         2.606        26.059
  Groundwater Inflow .......         0.000         0.000
  RDII Inflow ..............         0.000         0.000
  External Inflow ..........         0.102         1.024
  External Outflow .........         2.179        21.790
  Flooding Loss ............         0.789         7.888
  Evaporation Loss .........         0.000         0.000
  Exfiltration Loss ........         0.000         0.000
  Initial Stored Volume ....         0.076         0.761
  Final Stored Volume ......         0.542         5.424
  Continuity Error (%) .....        -3.218
  
  
  *************************
  Highest Continuity Errors
  *************************
  Node HS02004842 (17.68%)
  Node JK-storage (-13.25%)
  Node YS02001884 (10.80%)
  Node YS02001774 (6.82%)
  Node YSB1171 (3.62%)
  
  
  ***************************
  Time-Step Critical Elements
  ***************************
  Link 3 (51.60%)
  Link WS02006252WS02006251 (39.88%)
  Link WS02006238WS02006235 (2.26%)
  Link 2 (1.35%)
  
  
  ********************************
  Highest Flow Instability Indexes
  ********************************
  Link WS02006113WS02006111 (36)
  Link YS02001619YS02001622 (34)
  Link YS02001629YS02163301 (32)
  Link YS02163301YS02001633 (32)
  Link YS02163601YS02164001 (32)
  
  
  *************************
  Routing Time Step Summary
  *************************
  Minimum Time Step           :     0.08 sec
  Average Time Step           :     0.80 sec
  Maximum Time Step           :     5.00 sec
  Percent in Steady State     :    -0.00
  Average Iterations per Step :     4.73
  Percent Not Converging      :    27.47
  
  
  ***************************
  Subcatchment Runoff Summary
  ***************************
  
  ------------------------------------------------------------------------------------------------------------------------------
                            Total      Total      Total      Total     Imperv       Perv      Total       Total     Peak  Runoff
                           Precip      Runon       Evap      Infil     Runoff     Runoff     Runoff      Runoff   Runoff   Coeff
  Subcatchment                 mm         mm         mm         mm         mm         mm         mm    10^6 ltr      LPS
  ------------------------------------------------------------------------------------------------------------------------------
  sub0                      10.63       0.00       0.00       0.74       8.62       0.00       8.62        0.01     1.33   0.811
  sub1                      10.63       0.00       0.00       1.17       8.20       0.00       8.20        0.05     9.09   0.772
  sub2                      10.63       0.00       0.00       3.93       5.79       0.00       5.79        0.05     8.42   0.544
  sub3                      10.63       0.00       0.00       3.93       5.75       0.00       5.75        0.13    19.27   0.541
  sub4                      10.63       0.00       0.00       1.17       8.05       0.00       8.05        0.17    23.93   0.757
  sub5                      10.63       0.00       0.00       0.74       8.57       0.00       8.57        0.10    16.17   0.806
  sub7                      10.63       0.00       0.00       0.96       8.41       0.00       8.41        0.03     5.13   0.792
  sub8                      10.63       0.00       0.00       0.96       8.41       0.00       8.41        0.05     9.46   0.791
  sub9                      10.63       0.00       0.00       0.96       8.40       0.00       8.40        0.04     7.08   0.791
  sub10                     10.63       0.00       0.00       0.85       8.48       0.00       8.48        0.09    15.87   0.798
  sub11                     10.63       0.00       0.00       0.85       8.50       0.00       8.50        0.10    17.56   0.800
  sub12                     10.63       0.00       0.00       1.38       8.06       0.00       8.06        0.07    13.15   0.758
  sub14                     10.63       0.00       0.00       0.96       8.40       0.00       8.40        0.08    13.93   0.791
  sub15                     10.63       0.00       0.00       3.19       6.46       0.00       6.46        0.11    19.14   0.608
  sub16                     10.63       0.00       0.00       3.51       6.20       0.00       6.20        0.06    12.01   0.584
  sub17                     10.63       0.00       0.00       3.40       6.29       0.00       6.29        0.05     9.91   0.592
  sub22                     10.63       0.00       0.00       4.57       5.27       0.00       5.27        0.33    59.53   0.496
  sub23                     10.63       0.00       0.00       3.93       5.82       0.00       5.82        0.28    50.05   0.548
  sub60                     10.63       0.00       0.00       1.28       6.54       0.00       6.54        1.98   196.13   0.615
  sub61                     10.63       0.00       0.00       1.81       6.69       0.00       6.69        2.06   224.83   0.630
  sub62                     10.63       0.00       0.00       0.85       7.26       0.00       7.26        2.23   236.97   0.684
  sub63                     10.63       0.00       0.00       3.08       5.87       0.00       5.87        1.78   199.96   0.553
  sub64                     10.63       0.00       0.00       1.59       6.27       0.00       6.27        1.91   187.22   0.590
  sub65                     10.63       0.00       0.00       1.38       6.37       0.00       6.37        1.96   190.91   0.599
  sub66                     10.63       0.00       0.00       3.08       5.39       0.00       5.39        1.65   167.73   0.507
  sub67                     10.63       0.00       0.00       0.85       7.71       0.00       7.71        2.38   272.25   0.726
  sub68                     10.63       0.00       0.00       1.49       7.05       0.00       7.05        2.17   241.26   0.664
  sub69                     10.63       0.00       0.00       1.59       7.35       0.00       7.35        1.72   204.41   0.692
  sub70                     10.63       7.50       0.00       6.16       9.71       0.01       9.71        2.22   229.02   0.536
  sub71                     10.63       0.00       0.00       0.85       7.06       0.00       7.06        1.67   170.86   0.664
  sub72                     10.63       0.00       0.00       0.74       5.52       0.00       5.52        1.12    91.59   0.519
  sub73                     10.63       9.45       0.00       6.83      10.48       0.00      10.49        2.46   215.21   0.522
  sub74                     10.63       0.00       0.00       7.97       2.19       0.00       2.19        0.88   108.49   0.206
  
  
  ******************
  Node Depth Summary
  ******************
  
  ---------------------------------------------------------------------------------
                                 Average  Maximum  Maximum  Time of Max    Reported
                                   Depth    Depth      HGL   Occurrence   Max Depth
  Node                 Type       Meters   Meters   Meters  days hr:min      Meters
  ---------------------------------------------------------------------------------
  WS02001211           JUNCTION     0.67     0.78     5.62     0  02:50        0.78
  WS02001212           JUNCTION     0.40     0.50     5.56     0  02:51        0.50
  WS02001213           JUNCTION     0.64     0.75     5.51     0  02:51        0.75
  WS02003069           JUNCTION     0.46     0.58     5.16     0  02:52        0.58
  WS02003072           JUNCTION     0.53     0.64     5.01     0  02:53        0.64
  WS02003073           JUNCTION     0.32     0.39     4.46     0  02:54        0.39
  WS02003060           JUNCTION     0.41     0.51     5.44     0  02:52        0.51
  WS02003066           JUNCTION     0.25     0.31     5.86     0  02:05        0.31
  WS02003059           JUNCTION     0.70     0.80     5.49     0  02:51        0.80
  WS02003067           JUNCTION     0.60     0.72     6.04     0  02:05        0.72
  WS02004401           JUNCTION     0.71     0.89     6.89     0  02:03        0.89
  WS02004402           JUNCTION     0.74     0.92     6.88     0  02:03        0.92
  WS02004403           JUNCTION     0.76     0.93     6.86     0  02:03        0.93
  WS02004404           JUNCTION     0.84     1.00     6.85     0  02:03        1.00
  WS02004406           JUNCTION     0.84     0.98     6.81     0  02:03        0.98
  WS02004409           JUNCTION     0.53     0.70     6.47     0  02:05        0.70
  WS02004410           JUNCTION     0.55     0.71     6.43     0  02:05        0.71
  WS02004411           JUNCTION     0.56     0.72     6.40     0  02:04        0.72
  WS02004412           JUNCTION     0.58     0.72     6.36     0  02:05        0.72
  WS02004413           JUNCTION     0.73     0.88     6.35     0  02:05        0.88
  WS02004405           JUNCTION     0.83     0.99     6.84     0  02:03        0.99
  WS02006109           JUNCTION     0.80     1.02     7.63     0  02:00        1.02
  WS02006110           JUNCTION     0.79     0.95     7.54     0  02:00        0.95
  WS02006111           JUNCTION     0.24     0.30     7.01     0  02:01        0.30
  WS02006112           JUNCTION     0.89     1.17     7.06     0  02:23        1.12
  WS02006113           JUNCTION     0.37     0.48     7.37     0  02:00        0.47
  WS02006115           JUNCTION     0.61     0.80     6.94     0  02:02        0.80
  WS02006116           JUNCTION     0.69     0.88     6.92     0  02:02        0.87
  WS02006230           JUNCTION     0.80     1.08     7.82     0  01:59        1.08
  WS02006231           JUNCTION     0.53     0.75     7.88     0  01:59        0.75
  WS02006232           JUNCTION     0.67     0.89     7.93     0  01:59        0.88
  WS02006234           JUNCTION     0.60     0.82     7.98     0  02:00        0.81
  WS02006235           JUNCTION     0.63     0.85     8.01     0  02:00        0.84
  WS02006238           JUNCTION     0.66     0.87     8.02     0  02:00        0.87
  WS02006240           JUNCTION     0.56     0.78     8.08     0  02:00        0.78
  WS02006242           JUNCTION     0.62     0.85     8.11     0  02:00        0.84
  WS02006243           JUNCTION     0.51     0.73     8.15     0  02:00        0.73
  WS02006245           JUNCTION     0.48     0.70     8.18     0  02:00        0.70
  WS02006247           JUNCTION     0.50     0.70     8.20     0  02:00        0.70
  WS02006248           JUNCTION     0.44     0.63     8.22     0  02:00        0.63
  WS02006249           JUNCTION     0.47     0.64     8.24     0  02:00        0.64
  WS02006239           JUNCTION     0.62     0.84     8.05     0  02:00        0.84
  WS02006251           JUNCTION     0.47     0.68     8.35     0  02:20        0.67
  WS02006252           JUNCTION     0.42     0.59     8.84     0  03:40        0.59
  WS02006253           JUNCTION     0.50     0.70     8.35     0  02:00        0.70
  WS02006256           JUNCTION     1.06     1.21     8.15     0  02:00        1.21
  WS02004138           JUNCTION     0.16     0.19     7.44     0  00:30        0.19
  WS02004407           JUNCTION     0.24     0.31     6.62     0  02:03        0.31
  WS02006228           JUNCTION     0.81     1.07     7.73     0  02:00        1.07
  WS02006229           JUNCTION     0.79     1.07     7.76     0  02:00        1.07
  WS02006280           JUNCTION     0.07     0.16     8.43     0  01:50        0.16
  WS02006284           JUNCTION     0.37     0.50     8.90     0  01:50        0.50
  WS02006287           JUNCTION     0.10     0.23     9.19     0  01:50        0.23
  WSF200               JUNCTION     0.24     0.33     5.56     0  02:24        0.33
  HS02004901           JUNCTION     0.13     0.24    10.06     0  01:47        0.24
  HS02004881           JUNCTION     0.01     0.03     9.06     0  01:50        0.03
  HS02004876           JUNCTION     0.05     0.11     9.14     0  01:47        0.11
  HS02004870           JUNCTION     0.02     0.05     9.33     0  01:50        0.05
  HS02004862           JUNCTION     0.02     0.05     9.44     0  01:51        0.05
  HS02004856           JUNCTION     0.08     0.11     9.54     0  01:51        0.11
  HS02004852           JUNCTION     0.01     0.03     9.54     0  01:52        0.03
  HS02004848           JUNCTION     0.01     0.03     9.63     0  01:51        0.03
  HS02004842           JUNCTION     0.33     0.36     9.63     0  01:51        0.36
  HS02004837           JUNCTION     0.03     0.05     9.63     0  01:51        0.05
  HS02004830           JUNCTION     0.04     0.07     9.54     0  01:51        0.07
  HS02004824           JUNCTION     0.02     0.05     9.45     0  02:16        0.05
  HS02004817           JUNCTION     0.44     0.54     9.39     0  01:51        0.54
  HS02004807           JUNCTION     0.13     0.22     9.39     0  01:51        0.22
  HS02004802           JUNCTION     0.17     0.25     9.38     0  01:51        0.25
  HS02004799           JUNCTION     0.12     0.28     9.49     0  01:48        0.28
  HS02004792           JUNCTION     0.04     0.11     9.63     0  01:47        0.11
  HS02004788           JUNCTION     0.03     0.08     9.98     0  01:48        0.08
  HS02004785           JUNCTION     0.05     0.14    10.04     0  01:48        0.14
  HS02004777           JUNCTION     0.15     0.26    10.06     0  01:47        0.26
  HS02004770           JUNCTION     0.12     0.23    10.06     0  01:47        0.23
  HS02004480           JUNCTION     0.09     0.21     9.46     0  01:48        0.21
  HS02004479           JUNCTION     0.12     0.25     9.46     0  01:48        0.25
  HS02004478           JUNCTION     0.06     0.14     9.37     0  01:49        0.14
  YS02001745           JUNCTION     0.60     0.87     8.38     0  03:29        0.86
  YS02001748           JUNCTION     0.99     1.71     8.79     0  02:46        1.31
  YS02001751           JUNCTION     1.17     2.20     9.08     0  02:18        1.52
  YS02001754           JUNCTION     1.43     2.09     8.70     0  02:21        1.80
  YS02001762           JUNCTION     1.63     2.03     8.43     0  03:28        2.02
  YS02001765           JUNCTION     1.58     1.97     8.42     0  03:14        1.97
  YS02001767           JUNCTION     1.54     1.93     8.42     0  03:29        1.92
  YS02001770           JUNCTION     1.54     1.92     8.41     0  02:24        1.90
  YS02001774           JUNCTION     1.61     1.99     8.42     0  02:24        1.96
  YS02001779           JUNCTION     1.36     1.68     8.37     0  02:24        1.68
  YS02001882           JUNCTION     0.42     0.85     7.56     0  03:02        0.84
  YS02001884           JUNCTION     0.51     0.94     7.56     0  03:02        0.94
  YS02001759           JUNCTION     1.66     2.06     8.43     0  03:14        2.06
  YS02001887           JUNCTION     0.59     1.02     7.56     0  03:02        1.02
  YS02001890           JUNCTION     0.62     1.05     7.56     0  03:03        1.05
  YS02001898           JUNCTION     0.39     0.81     7.55     0  03:03        0.81
  YS02001901           JUNCTION     0.51     0.94     7.55     0  03:03        0.94
  YS02001904           JUNCTION     0.48     0.91     7.54     0  03:03        0.91
  YS02001907           JUNCTION     0.81     1.26     7.55     0  03:02        1.25
  YS02001910           JUNCTION     0.60     1.04     7.55     0  03:03        1.04
  YS02001915           JUNCTION     0.40     0.83     7.55     0  03:02        0.83
  YS02001918           JUNCTION     0.16     0.48     7.55     0  03:03        0.48
  YS02001619           JUNCTION     1.14     1.61     8.54     0  02:34        1.47
  YS02001629           JUNCTION     1.50     1.85     8.40     0  02:37        1.85
  YS02001641           JUNCTION     1.60     1.98     8.42     0  02:45        1.94
  YS02001644           JUNCTION     1.60     1.92     8.35     0  02:24        1.92
  YS02001652           JUNCTION     1.44     2.16     8.76     0  02:25        1.86
  YS02001655           JUNCTION     1.20     2.20     9.05     0  02:19        1.70
  YS02001920           JUNCTION     0.25     0.55     7.56     0  03:02        0.55
  YS02001923           JUNCTION     0.10     0.29     7.55     0  03:03        0.28
  YS02001926           JUNCTION     0.19     0.26     7.71     0  03:01        0.26
  YS02001929           JUNCTION     0.10     0.14     7.84     0  03:01        0.14
  YS02001658           JUNCTION     0.93     2.30     9.44     0  02:33        2.30
  YS02001661           JUNCTION     0.71     2.23     9.64     0  03:00        1.49
  YS02001664           JUNCTION     0.27     0.57     8.50     0  02:55        0.56
  YS02001622           JUNCTION     1.16     1.62     8.52     0  02:35        1.49
  YS02001633           JUNCTION     1.59     2.00     8.45     0  02:45        1.96
  YS02001649           JUNCTION     1.64     2.05     8.44     0  02:24        2.05
  YS02001757           JUNCTION     1.76     2.17     8.43     0  03:28        2.16
  YS02001895           JUNCTION     0.38     0.81     7.55     0  03:02        0.81
  YS02001625           JUNCTION     1.45     1.78     8.38     0  02:36        1.78
  YS02163301           JUNCTION     1.53     1.91     8.43     0  02:45        1.89
  YS02163601           JUNCTION     1.64     2.07     8.46     0  02:45        2.00
  YS02164001           JUNCTION     1.58     1.99     8.45     0  02:45        1.94
  YS02001647           JUNCTION     1.43     1.81     8.42     0  02:45        1.79
  YSB1154              JUNCTION     0.26     0.40     9.46     0  01:48        0.40
  YSB6556              JUNCTION     0.16     0.29     9.46     0  01:48        0.29
  YSB1174              JUNCTION     0.21     0.35     9.46     0  01:48        0.35
  YSB1171              JUNCTION     0.41     0.55     9.46     0  01:48        0.55
  YS02006553           JUNCTION     0.82     1.25     7.54     0  03:02        1.25
  YS02006561           JUNCTION     0.22     0.56     7.22     0  03:03        0.56
  YS02006556           JUNCTION     0.79     1.21     7.52     0  03:02        1.21
  YS02006558           JUNCTION     0.83     1.25     7.51     0  03:03        1.25
  YS02001783           JUNCTION     0.45     1.38     7.52     0  02:27        1.07
  YS02001784           JUNCTION     0.47     1.65     7.72     0  02:27        1.07
  YS02001786           JUNCTION     0.43     1.76     7.79     0  02:27        0.98
  YS02001788           JUNCTION     0.37     1.71     7.69     0  02:27        0.93
  YS02001790           JUNCTION     0.49     1.83     7.47     0  02:27        1.16
  YS02001791           JUNCTION     0.46     1.57     7.04     0  02:27        1.22
  YS02001793           JUNCTION     0.63     2.92     7.75     0  02:18        1.79
  WS02004139           JUNCTION     0.62     0.73     5.64     0  02:50        0.73
  WSC                  OUTFALL      0.32     0.39     1.06     0  02:54        0.39
  3                    OUTFALL      0.10     0.21     6.21     0  02:00        0.21
  4                    OUTFALL      0.05     0.14     7.14     0  02:00        0.14
  5                    OUTFALL      0.00     0.00     5.00     0  00:00        0.00
  JK-storage           STORAGE      2.27     5.80     6.60     0  02:27        5.80
  CC-storage           STORAGE      0.97     1.38     8.38     0  03:31        1.38
  XR-storage           STORAGE      5.84     7.72     5.72     0  03:01        7.72
  
  
  *******************
  Node Inflow Summary
  *******************
  
  -------------------------------------------------------------------------------------------------
                                  Maximum  Maximum                  Lateral       Total        Flow
                                  Lateral    Total  Time of Max      Inflow      Inflow     Balance
                                   Inflow   Inflow   Occurrence      Volume      Volume       Error
  Node                 Type           LPS      LPS  days hr:min    10^6 ltr    10^6 ltr     Percent
  -------------------------------------------------------------------------------------------------
  WS02001211           JUNCTION      7.35   387.72     0  06:38       0.207        7.71       0.280
  WS02001212           JUNCTION      0.00   387.78     0  06:39           0        7.69       0.165
  WS02001213           JUNCTION      0.00   387.83     0  06:38           0        7.68       0.226
  WS02003069           JUNCTION      0.32   930.11     0  02:52     0.00902        16.9       0.134
  WS02003072           JUNCTION      0.00   929.48     0  02:53           0        16.9       0.174
  WS02003073           JUNCTION      1.82   930.87     0  02:53      0.0514        16.9       0.185
  WS02003060           JUNCTION     16.53   930.14     0  02:52       0.466          17       0.129
  WS02003066           JUNCTION      0.00   584.83     0  02:05           0        8.86       0.050
  WS02003059           JUNCTION      0.00   387.92     0  06:38           0        7.66       0.388
  WS02003067           JUNCTION      0.00   584.74     0  02:05           0        8.87       0.106
  WS02004401           JUNCTION      0.00   589.86     0  02:02           0        9.11       0.241
  WS02004402           JUNCTION      0.00   588.83     0  02:03           0        9.08       0.226
  WS02004403           JUNCTION      0.00   588.88     0  02:03           0        9.06       0.205
  WS02004404           JUNCTION      0.16   588.28     0  02:03     0.00457        9.05       0.155
  WS02004406           JUNCTION      0.00   588.49     0  02:03           0        9.02       0.376
  WS02004409           JUNCTION      0.00   587.16     0  02:03           0        8.97       0.185
  WS02004410           JUNCTION      0.00   586.07     0  02:04           0        8.96       0.208
  WS02004411           JUNCTION      0.00   585.50     0  02:04           0        8.94       0.213
  WS02004412           JUNCTION      0.00   585.00     0  02:04           0        8.92       0.229
  WS02004413           JUNCTION      0.00   585.02     0  02:05           0         8.9       0.339
  WS02004405           JUNCTION      0.04   588.11     0  02:03     0.00107        9.04       0.230
  WS02006109           JUNCTION      1.23   581.14     0  02:00      0.0347        9.18       0.237
  WS02006110           JUNCTION      0.00   581.12     0  02:00           0        9.16       0.220
  WS02006111           JUNCTION      0.00   608.03     0  02:00           0        9.13       0.051
  WS02006112           JUNCTION      9.91   597.65     0  02:01       0.054        9.18       0.316
  WS02006113           JUNCTION      0.00   581.77     0  02:01           0        9.14       0.110
  WS02006115           JUNCTION      0.00   609.13     0  02:01           0        9.15       0.227
  WS02006116           JUNCTION      0.00   592.46     0  02:02           0        9.13       0.214
  WS02006230           JUNCTION     10.28   402.43     0  04:40        0.29        7.54       0.182
  WS02006231           JUNCTION      0.00   392.13     0  04:40           0        7.26       0.153
  WS02006232           JUNCTION      0.00   392.13     0  04:40           0        7.27       0.226
  WS02006234           JUNCTION      0.00   392.19     0  04:30           0        7.28       0.114
  WS02006235           JUNCTION      0.00   392.18     0  04:30           0        7.32       0.154
  WS02006238           JUNCTION      0.00   337.40     0  04:18           0        5.41       0.137
  WS02006240           JUNCTION      0.00   337.58     0  04:13           0         5.4       0.227
  WS02006242           JUNCTION      0.00   337.73     0  04:13           0         5.4       0.272
  WS02006243           JUNCTION      0.00   340.56     0  03:41           0        5.39      -0.068
  WS02006245           JUNCTION      0.00   344.51     0  03:41           0         5.4       0.186
  WS02006247           JUNCTION      0.00   348.75     0  03:40           0         5.4       0.128
  WS02006248           JUNCTION      0.00   353.00     0  03:40           0        5.41       0.073
  WS02006249           JUNCTION      0.00   446.68     0  02:20           0        6.48       0.162
  WS02006239           JUNCTION      0.00   337.96     0  04:12           0         5.4       0.200
  WS02006251           JUNCTION      0.08   447.16     0  02:21     0.00217        6.51       0.135
  WS02006252           JUNCTION      0.00   400.00     0  02:20           0        6.18       0.007
  WS02006253           JUNCTION      1.33    51.15     0  01:49     0.00698       0.328       1.175
  WS02006256           JUNCTION      0.00   600.00     0  04:30           0        5.78       0.056
  WS02004138           JUNCTION      0.00   380.00     0  00:30           0        7.52       0.048
  WS02004407           JUNCTION      0.00   587.61     0  02:03           0        8.98       0.084
  WS02006228           JUNCTION      0.00   579.91     0  02:00           0        9.16       0.166
  WS02006229           JUNCTION      0.00   579.88     0  02:00           0        9.17       0.141
  WS02006280           JUNCTION      0.00   250.77     0  01:50           0        1.65       0.004
  WS02006284           JUNCTION      0.10   250.79     0  01:50      0.0027        1.65       0.062
  WS02006287           JUNCTION      0.00   250.70     0  01:50           0        1.65       0.044
  WSF200               JUNCTION      0.00   584.87     0  02:05           0        8.86       0.049
  HS02004901           JUNCTION     12.01    12.01     0  01:45      0.0649      0.0651       2.778
  HS02004881           JUNCTION      5.13    49.92     0  01:49      0.0283       0.303       0.107
  HS02004876           JUNCTION      9.09    44.88     0  01:50      0.0545       0.275       0.197
  HS02004870           JUNCTION      9.46    35.90     0  01:50      0.0537       0.221       0.049
  HS02004862           JUNCTION      8.62    26.77     0  01:51      0.0595       0.167       0.102
  HS02004856           JUNCTION      7.08    18.19     0  01:50      0.0404       0.109       1.338
  HS02004852           JUNCTION      0.00    11.37     0  01:51           0      0.0688       0.079
  HS02004848           JUNCTION     19.27    19.27     0  02:15       0.129       0.129       0.035
  HS02004842           JUNCTION      0.00     7.96     0  02:16           0      0.0736      21.474
  HS02004837           JUNCTION     22.22    28.76     0  01:50       0.273       0.333       0.245
  HS02004830           JUNCTION      0.15    28.90     0  01:51     0.00423       0.323       0.383
  HS02004824           JUNCTION     23.98    52.78     0  02:16       0.169       0.492       0.110
  HS02004817           JUNCTION      0.60    53.38     0  02:16      0.0169       0.508       3.394
  HS02004807           JUNCTION     17.56    68.44     0  02:16      0.0987        0.59       0.739
  HS02004802           JUNCTION      0.00    68.45     0  02:16           0       0.587       0.678
  HS02004799           JUNCTION     13.93   155.61     0  01:47      0.0799       0.915       0.288
  HS02004792           JUNCTION     59.81   141.74     0  01:47       0.341       0.835       0.049
  HS02004788           JUNCTION     20.81    82.40     0  01:48       0.158       0.496       0.079
  HS02004785           JUNCTION      0.15    61.69     0  01:47     0.00423       0.339       0.145
  HS02004777           JUNCTION      0.03    61.69     0  01:46    0.000846        0.34       1.552
  HS02004770           JUNCTION     50.05    61.90     0  01:46       0.278       0.341       0.915
  HS02004480           JUNCTION      0.00   184.53     0  01:48           0        1.08       0.105
  HS02004479           JUNCTION      0.00    29.01     0  01:50           0       0.176       0.418
  HS02004478           JUNCTION      0.00   250.68     0  01:49           0        1.65       0.021
  YS02001745           JUNCTION    196.14   333.26     0  02:41        1.98           2       0.373
  YS02001748           JUNCTION      0.04   494.77     0  02:42     0.00127           2       1.029
  YS02001751           JUNCTION      0.01   450.72     0  02:20     0.00031        1.96       1.189
  YS02001754           JUNCTION      0.26   235.88     0  02:19     0.00733        1.94       1.268
  YS02001762           JUNCTION      0.00   240.09     0  02:59           0        1.88       1.131
  YS02001765           JUNCTION      0.00   239.79     0  02:59           0        1.88       1.302
  YS02001767           JUNCTION      0.54   239.41     0  02:59      0.0151         1.9       1.906
  YS02001770           JUNCTION    237.12   238.01     0  02:59        2.24        2.26       1.400
  YS02001774           JUNCTION      0.00   185.31     0  03:35           0       0.369       7.316
  YS02001779           JUNCTION      0.01   185.83     0  03:35    0.000141       0.331       4.813
  YS02001882           JUNCTION      0.00    12.30     0  02:14           0      0.0183      12.855
  YS02001884           JUNCTION      0.00    21.59     0  02:17           0      0.0527      12.109
  YS02001759           JUNCTION    224.87   464.60     0  02:59        2.06         3.9       0.582
  YS02001887           JUNCTION    272.70   272.70     0  02:58        2.39        2.42       0.333
  YS02001890           JUNCTION      0.00   268.26     0  03:00           0        2.38       0.371
  YS02001898           JUNCTION      0.00   273.97     0  02:18           0        2.36       0.114
  YS02001901           JUNCTION      0.00   272.36     0  02:19           0        2.36       0.278
  YS02001904           JUNCTION      0.00   270.89     0  02:19           0        2.36       0.252
  YS02001907           JUNCTION      0.00   526.61     0  03:06           0        5.21       0.461
  YS02001910           JUNCTION      0.00   267.81     0  03:08           0        2.86       0.392
  YS02001915           JUNCTION    170.88   264.08     0  03:04        1.67        2.86       0.196
  YS02001918           JUNCTION      0.00   106.04     0  03:14           0         1.2       0.142
  YS02001619           JUNCTION    167.73   167.73     0  03:01        1.65        1.65       0.746
  YS02001629           JUNCTION      0.00   231.83     0  02:22           0        1.57       1.886
  YS02001641           JUNCTION      0.00   365.88     0  02:30           0        3.43       0.610
  YS02001644           JUNCTION    187.26   785.03     0  03:33        1.91        6.43       0.400
  YS02001652           JUNCTION      0.00   261.17     0  02:32           0        1.74       1.319
  YS02001655           JUNCTION      0.15   431.28     0  02:25     0.00434        1.77       1.328
  YS02001920           JUNCTION      2.87   103.47     0  03:03      0.0809         1.2       0.228
  YS02001923           JUNCTION      0.04    91.49     0  03:01     0.00106        1.12       0.042
  YS02001926           JUNCTION      0.05    91.60     0  03:01     0.00147        1.12       0.282
  YS02001929           JUNCTION     91.59    91.59     0  03:01        1.12        1.12       0.041
  YS02001658           JUNCTION      0.00   617.69     0  02:33           0        1.85       0.953
  YS02001661           JUNCTION      0.00   608.29     0  02:56           0        2.51      -0.334
  YS02001664           JUNCTION    199.96   381.73     0  02:55        1.78        2.45       0.131
  YS02001622           JUNCTION      0.00   194.17     0  02:23           0        1.64       1.965
  YS02001633           JUNCTION    191.11   366.69     0  02:30        1.96        3.49       0.916
  YS02001649           JUNCTION      0.00   728.23     0  02:53           0        5.25       0.701
  YS02001757           JUNCTION      0.00  1359.62     0  02:55           0        9.83       0.943
  YS02001895           JUNCTION      0.00   267.04     0  02:58           0        2.37       0.201
  YS02001625           JUNCTION      0.00   231.95     0  02:22           0        1.61       2.465
  YS02163301           JUNCTION      0.00   206.86     0  02:30           0        1.56       1.552
  YS02163601           JUNCTION      0.11   367.10     0  02:30      0.0031        3.45       0.872
  YS02164001           JUNCTION      0.00   366.76     0  02:30           0        3.43       0.575
  YS02001647           JUNCTION      0.00   536.65     0  02:53           0        4.04       0.690
  YSB1154              JUNCTION     16.17    16.17     0  01:48       0.097      0.0978       1.500
  YSB6556              JUNCTION      0.00    16.24     0  01:49           0      0.0986       1.284
  YSB1174              JUNCTION     13.15    13.15     0  01:45      0.0704      0.0709       1.845
  YSB1171              JUNCTION      0.00    29.32     0  01:48           0       0.175       3.755
  YS02006553           JUNCTION      0.00   526.63     0  03:06           0         5.2       0.295
  YS02006561           JUNCTION      0.00   753.86     0  03:03           0        7.33       0.007
  YS02006556           JUNCTION      0.00   526.65     0  03:06           0         5.2       0.211
  YS02006558           JUNCTION    242.14   753.77     0  03:03        2.19        7.36       0.070
  YS02001783           JUNCTION      0.00   753.67     0  03:03           0        7.33       0.029
  YS02001784           JUNCTION      1.06   754.81     0  03:03      0.0299        7.36       0.046
  YS02001786           JUNCTION      0.06   754.79     0  03:03     0.00159        7.36       0.043
  YS02001788           JUNCTION      0.07   754.80     0  03:03       0.002        7.36       0.024
  YS02001790           JUNCTION      0.15   755.05     0  03:03     0.00437        7.36       0.031
  YS02001791           JUNCTION      0.00   755.07     0  03:03           0        7.36       0.015
  YS02001793           JUNCTION      0.00   755.21     0  03:03           0        7.36      -0.002
  WS02004139           JUNCTION      0.32   380.36     0  00:30     0.00905        7.53       0.342
  WSC                  OUTFALL       0.00   930.29     0  02:54           0        16.9       0.000
  3                    OUTFALL       0.00   526.02     0  02:00           0        3.83       0.000
  4                    OUTFALL       0.00   184.50     0  02:00           0        1.06       0.000
  5                    OUTFALL       0.00     0.00     0  00:00           0           0       0.000 ltr
  JK-storage           STORAGE       0.00  1106.92     0  02:17           0        7.51     -11.698
  CC-storage           STORAGE       0.00  1359.48     0  02:55           0         9.1       0.619
  XR-storage           STORAGE     519.52   519.52     0  03:01        8.98        9.58      -0.608
  
  
  **********************
  Node Surcharge Summary
  **********************
  
  Surcharging occurs when water rises above the top of the highest conduit.
  ---------------------------------------------------------------------
                                               Max. Height   Min. Depth
                                   Hours       Above Crown    Below Rim
  Node                 Type      Surcharged         Meters       Meters
  ---------------------------------------------------------------------
  WS02006109           JUNCTION        3.64          0.197        1.623
  WS02006110           JUNCTION        0.97          0.044        1.806
  WS02006112           JUNCTION        1.23          0.174        1.506
  WS02006231           JUNCTION        0.41          0.044        1.486
  WS02006232           JUNCTION        3.58          0.188        1.292
  WS02006234           JUNCTION        0.92          0.098        1.142
  WS02006235           JUNCTION        2.83          0.138        1.152
  WS02006238           JUNCTION        3.06          0.154        1.276
  WS02006240           JUNCTION        0.78          0.075        1.315
  WS02006242           JUNCTION        2.74          0.115        0.705
  WS02006243           JUNCTION        0.32          0.020        0.750
  WS02006239           JUNCTION        1.17          0.101        1.189
  WS02006252           JUNCTION        3.51          0.194        0.906
  WS02006228           JUNCTION        3.56          0.244        1.956
  YS02001748           JUNCTION        3.72          0.635        0.555
  YS02001751           JUNCTION        5.32          1.200        0.000
  YS02001754           JUNCTION        5.65          1.044        0.106
  YS02001762           JUNCTION        5.94          1.027        0.123
  YS02001765           JUNCTION        5.92          0.973        0.127
  YS02001767           JUNCTION        5.88          0.928        0.102
  YS02001770           JUNCTION        5.81          0.887        0.033
  YS02001774           JUNCTION        5.93          0.994        0.056
  YS02001779           JUNCTION        5.61          0.680        0.000
  YS02001759           JUNCTION        5.97          1.064        0.146
  YS02001890           JUNCTION        0.03          0.004        0.756
  YS02001907           JUNCTION        1.24          0.249        0.701
  YS02001910           JUNCTION        0.21          0.042        1.058
  YS02001619           JUNCTION        5.30          0.610        0.000
  YS02001629           JUNCTION        5.34          0.470        0.000
  YS02001641           JUNCTION        5.93          0.978        0.122
  YS02001644           JUNCTION        5.93          0.920        0.000
  YS02001652           JUNCTION        5.69          1.130        0.000
  YS02001655           JUNCTION        5.36          1.200        0.000
  YS02001658           JUNCTION        3.77          1.300        0.000
  YS02001661           JUNCTION        0.15          1.164        0.226
  YS02001622           JUNCTION        5.40          0.620        0.000
  YS02001633           JUNCTION        5.91          0.980        0.080
  YS02001649           JUNCTION        5.95          1.050        0.000
  YS02001757           JUNCTION        6.03          1.169        0.041
  YS02001625           JUNCTION        5.71          0.780        0.000
  YS02163301           JUNCTION        5.85          0.913        0.117
  YS02163601           JUNCTION        5.95          1.065        0.015
  YS02164001           JUNCTION        5.92          0.994        0.106
  YS02001647           JUNCTION        5.71          0.807        0.093
  YS02006553           JUNCTION        1.32          0.253        0.937
  YS02006556           JUNCTION        0.68          0.170        1.180
  YS02006558           JUNCTION        0.60          0.146        1.254
  YS02001783           JUNCTION        0.97          0.577        1.023
  YS02001784           JUNCTION        1.03          0.851        0.639
  YS02001786           JUNCTION        0.98          0.963        0.467
  YS02001788           JUNCTION        0.95          0.910        0.570
  YS02001790           JUNCTION        2.06          1.027        0.130
  YS02001791           JUNCTION        2.09          0.771        1.149
  YS02001793           JUNCTION        2.20          1.919        0.681
  
  
  *********************
  Node Flooding Summary
  *********************
  
  Flooding refers to all water that overflows a node, whether it ponds or not.
  --------------------------------------------------------------------------
                                                             Total   Maximum
                                 Maximum   Time of Max       Flood    Ponded
                        Hours       Rate    Occurrence      Volume     Depth
  Node                 Flooded       LPS   days hr:min    10^6 ltr    Meters
  --------------------------------------------------------------------------
  YS02001751              0.01    167.61      0  02:21       0.000     0.000
  YS02001779              1.78    185.75      0  03:35       0.304     0.000
  YS02001619              0.01     29.76      0  02:39       0.000     0.000
  YS02001629              0.01     34.04      0  02:39       0.001     0.000
  YS02001644              2.70    784.96      0  03:33       3.476     0.000
  YS02001652              0.01     70.09      0  02:26       0.000     0.000
  YS02001655              0.01    307.94      0  02:25       0.001     0.000
  YS02001658              0.01    355.87      0  02:35       0.001     0.000
  YS02001622              0.01     42.68      0  02:38       0.000     0.000
  YS02001649              0.04     38.53      0  03:00       0.002     0.000
  YS02001625              0.22     30.97      0  02:42       0.004     0.000
  JK-storage              1.97    747.63      0  03:00       2.724     0.000
  XR-storage              2.44    423.87      0  03:01       1.375     0.000
  
  
  **********************
  Storage Volume Summary
  **********************
  
  --------------------------------------------------------------------------------------------------
                         Average     Avg  Evap Exfil       Maximum     Max    Time of Max    Maximum
                          Volume    Pcnt  Pcnt  Pcnt        Volume    Pcnt     Occurrence    Outflow
  Storage Unit           1000 m3    Full  Loss  Loss       1000 m3    Full    days hr:min        LPS
  --------------------------------------------------------------------------------------------------
  JK-storage               0.114      39     0     0         0.291     100       0  02:27     600.00
  CC-storage               2.707      17     0     0         3.841      24       0  03:31     400.00
  XR-storage               0.700      76     0     0         0.926     100       0  03:01     380.00
  
  
  ***********************
  Outfall Loading Summary
  ***********************
  
  -----------------------------------------------------------
                         Flow       Avg       Max       Total
                         Freq      Flow      Flow      Volume
  Outfall Node           Pcnt       LPS       LPS    10^6 ltr
  -----------------------------------------------------------
  WSC                   99.99    649.45    930.29      16.903
  3                     88.11    200.65    526.02       3.827
  4                     54.49     84.03    184.50       1.060
  5                      0.00      0.00      0.00       0.000
  -----------------------------------------------------------
  System                60.65    934.12   1510.03      21.790
  
  
  ********************
  Link Flow Summary
  ********************
  
  -----------------------------------------------------------------------------
                                 Maximum  Time of Max   Maximum    Max/    Max/
                                  |Flow|   Occurrence   |Veloc|    Full    Full
  Link                 Type          LPS  days hr:min     m/sec    Flow   Depth
  -----------------------------------------------------------------------------
  WS02003066WSF200     CONDUIT    584.87     0  02:05      2.80    0.10    0.24
  WS02006287WS02006284 CONDUIT    250.70     0  01:50      1.73    0.12    0.24
  WS02006284WS02006280 CONDUIT    250.77     0  01:50      1.97    0.11    0.22
  WS02006280WS02006229 CONDUIT    250.78     0  01:50      3.17    0.05    0.16
  WS02006229WS02006228 CONDUIT    579.91     0  02:00      1.15    1.92    1.00
  WS02006256WS02006235 CONDUIT    166.25     0  00:01      2.58    1.76    1.00
  WS02006253WS02006251 CONDUIT     55.50     0  02:05      0.51    0.17    0.98
  WS02006252WS02006251 CONDUIT    400.69     0  04:18      3.19    1.47    1.00
  WS02006251WS02006249 CONDUIT    446.68     0  02:20      1.19    1.29    0.94
  WS02006249WS02006248 CONDUIT    353.00     0  03:40      1.15    1.93    0.90
  WS02006248WS02006247 CONDUIT    348.75     0  03:40      1.12    0.76    0.95
  WS02006247WS02006245 CONDUIT    344.51     0  03:41      1.09    2.73    0.99
  WS02006245WS02006243 CONDUIT    340.56     0  03:41      1.11    1.01    1.00
  WS02006243WS02006242 CONDUIT    337.73     0  04:13      1.00    0.72    1.00
  WS02006242WS02006240 CONDUIT    337.58     0  04:13      0.96    1.34    1.00
  WS02006240WS02006239 CONDUIT    337.96     0  04:12      1.00    1.06    1.00
  WS02006239WS02006238 CONDUIT    337.40     0  04:18      0.92    1.08    1.00
  WS02006238WS02006235 CONDUIT    337.61     0  04:19      1.25    0.75    1.00
  WS02006235WS02006234 CONDUIT    392.19     0  04:30      1.03    4.14    1.00
  WS02006234WS02006232 CONDUIT    392.13     0  04:40      1.13    0.79    1.00
  WS02006232WS02006231 CONDUIT    392.13     0  04:40      1.06    0.82    1.00
  WS02006231WS02006230 CONDUIT    392.16     0  04:40      1.32    5.95    1.00
  WS02006230WS02006229 CONDUIT    402.49     0  04:40      1.05    8.96    1.00
  WS02006228WS02006109 CONDUIT    579.91     0  02:00      1.15    2.53    1.00
  WS02006116WS02004401 CONDUIT    589.86     0  02:02      0.80    0.81    0.88
  WS02006115WS02006116 CONDUIT    592.46     0  02:02      0.88    0.76    0.81
  WS02006113WS02006111 CONDUIT    608.03     0  02:00      2.53    0.73    0.48
  WS02006112WS02006115 CONDUIT    609.13     0  02:01      0.82    0.36    0.89
  WS02006111WS02006112 CONDUIT    589.15     0  02:01      1.62    0.28    0.68
  WS02006110WS02006113 CONDUIT    581.77     0  02:01      1.36    0.53    0.80
  WS02006109WS02006110 CONDUIT    581.12     0  02:00      1.16    1.12    1.00
  WS02004411WS02004412 CONDUIT    585.00     0  02:04      0.96    0.83    0.72
  WS02004401WS02004402 CONDUIT    588.83     0  02:03      0.79    0.71    0.90
  WS02004413WS02003067 CONDUIT    584.74     0  02:05      1.16    0.25    0.61
  WS02004412WS02004413 CONDUIT    585.02     0  02:05      0.87    0.39    0.80
  WS02004410WS02004411 CONDUIT    585.50     0  02:04      0.97    0.80    0.72
  WS02004409WS02004410 CONDUIT    586.07     0  02:04      0.99    0.76    0.71
  WS02004407WS02004409 CONDUIT    587.16     0  02:03      1.49    0.21    0.50
  WS02004406WS02004407 CONDUIT    587.61     0  02:03      1.09    0.26    0.65
  WS02004405WS02004406 CONDUIT    588.49     0  02:03      0.75    1.16    0.99
  WS02004404WS02004405 CONDUIT    588.07     0  02:03      0.84    5.76    0.99
  WS02004403WS02004404 CONDUIT    588.12     0  02:03      0.76    0.43    0.96
  WS02004402WS02004403 CONDUIT    588.88     0  02:03      0.78    0.85    0.92
  WS02004139WS02001211 CONDUIT    380.37     0  06:38      0.81    0.48    0.59
  WS02004138WS02004139 CONDUIT    380.04     0  00:30      3.33    0.08    0.43
  WS02003067WS02003066 CONDUIT    584.83     0  02:05      1.27    0.19    0.43
  WS02001213WS02003059 CONDUIT    387.92     0  06:38      0.80    0.64    0.77
  WS02001212WS02001213 CONDUIT    387.83     0  06:38      1.32    0.60    0.47
  WS02001211WS02001212 CONDUIT    387.78     0  06:39      0.78    0.30    0.64
  WS02003072WS02003073 CONDUIT    929.05     0  02:53      1.72    2.01    0.48
  WS02003069WS02003072 CONDUIT    929.48     0  02:53      1.62    0.45    0.51
  WS02003060WS02003069 CONDUIT    929.79     0  02:52      1.86    0.36    0.45
  WS02003059WS02003060 CONDUIT    388.04     0  06:37      0.95    0.25    0.66
  HS02004901HS02004770 CONDUIT     11.86     0  01:47      0.05    0.04    0.34
  HS02004876HS02004881 CONDUIT     44.96     0  01:50      0.68    0.48    0.09
  HS02004870HS02004876 CONDUIT     35.89     0  01:50      0.47    0.02    0.11
  HS02004842HS02004848 CONDUIT      7.96     0  02:16      0.04    0.00    0.28
  HS02004837HS02004842 CONDUIT      8.06     0  02:20      0.41    0.00    0.30
  HS02004830HS02004837 CONDUIT     28.75     0  01:51      0.48    0.03    0.09
  HS02004824HS02004830 CONDUIT     28.90     0  01:52      0.51    0.04    0.08
  HS02004817HS02004824 CONDUIT     52.78     0  02:16      0.18    0.02    0.42
  HS02004770HS02004777 CONDUIT     61.66     0  01:46      0.25    0.11    0.35
  HS02004799HS02004480 CONDUIT    155.54     0  01:47      0.65    0.20    0.34
  HS02004792HS02004799 CONDUIT    141.71     0  01:47      0.74    0.09    0.27
  HS02004788HS02004792 CONDUIT     82.36     0  01:48      0.88    0.05    0.13
  HS02004785HS02004788 CONDUIT     61.65     0  01:48      0.55    0.46    0.16
  HS02004777HS02004785 CONDUIT     61.54     0  01:47      0.30    0.08    0.29
  HS02004480HS02004478 CONDUIT    184.33     0  01:49      1.04    0.78    0.25
  HS02004479HS02004480 CONDUIT     29.23     0  01:51      0.28    0.03    0.33
  HS02004862HS02004870 CONDUIT     26.75     0  01:51      0.52    0.03    0.07
  HS02004848HS02004852 CONDUIT     11.37     0  01:51      0.35    0.01    0.05
  HS02004856HS02004862 CONDUIT     18.17     0  01:51      0.38    0.02    0.07
  HS02004852HS02004856 CONDUIT     11.35     0  01:52      0.16    0.01    0.10
  HS02004802HS02004478 CONDUIT     68.53     0  02:17      0.36    0.06    0.28
  HS02004478WS02006287 CONDUIT    250.70     0  01:50      1.43    0.07    0.19
  HS02004817HS02004807 CONDUIT     53.46     0  02:17      0.14    0.03    0.54
  HS02004807HS02004802 CONDUIT     68.45     0  02:16      0.30    0.13    0.33
  YS02001759YS02001757 CONDUIT    464.59     0  02:59      0.59    0.33    1.00
  YS02001762YS02001759 CONDUIT    239.74     0  02:59      0.31    0.28    1.00
  YS02001765YS02001762 CONDUIT    240.09     0  02:59      0.31    0.23    1.00
  YS02001770YS02001767 CONDUIT    238.88     0  02:59      0.38    0.95    1.00
  YS02001774YS02001770 CONDUIT    185.31     0  03:35      0.24    0.12    1.00
  YS02001779YS02001774 CONDUIT    185.82     0  03:35      0.24    0.09    1.00
  YS02001649YS02001757 CONDUIT    728.72     0  02:53      0.93    0.44    1.00
  YS02001767YS02001765 CONDUIT    239.79     0  02:59      0.35    0.30    1.00
  YS02006561YS02001783 CONDUIT    753.67     0  03:03      2.11    0.39    0.85
  YS02001783YS02001784 CONDUIT    753.75     0  03:03      1.59    1.04    1.00
  YS02001784YS02001785 CONDUIT    754.74     0  03:03      1.72    1.76    1.00
  YS02001788YS02001790 CONDUIT    754.89     0  03:03      2.25    0.56    1.00
  YS02001790YS02001791 CONDUIT    755.07     0  03:03      2.72    0.82    1.00
  YS02001791YS02001793 CONDUIT    755.21     0  03:03      5.35    0.32    1.00
  YS02001910YS02001907 CONDUIT    269.35     0  03:10      0.49    0.15    1.00
  YS02001786YS02001788 CONDUIT    754.73     0  03:03      2.16    1.45    1.00
  YS02001915YS02001910 CONDUIT    267.81     0  03:08      0.56    0.13    0.92
  YS02001918YS02001915 CONDUIT    110.56     0  03:19      0.44    0.06    0.66
  YS02001923YS02001920 CONDUIT    100.60     0  03:03      0.64    0.05    0.42
  YS02001926YS02001923 CONDUIT     91.45     0  03:01      0.74    0.13    0.21
  YS02001929YS02001926 CONDUIT     91.54     0  03:01      0.81    0.04    0.20
  YS02001920YS02001918 CONDUIT    106.04     0  03:14      0.63    0.10    0.52
  YS02001629YS02163301 CONDUIT    206.86     0  02:30      0.26    0.25    1.00
  YS02001619YS02001622 CONDUIT    194.17     0  02:23      0.65    0.29    1.00
  YS02001622YS02001625 CONDUIT    231.95     0  02:22      0.32    0.12    1.00
  YS02001625YS02001629 CONDUIT    231.83     0  02:22      0.30    0.11    1.00
  YS02163301YS02001633 CONDUIT    206.47     0  02:30      0.26    0.19    1.00
  YS02163601YS02164001 CONDUIT    366.76     0  02:30      0.47    0.32    1.00
  YS02164001YS02001641 CONDUIT    365.88     0  02:30      0.47    0.50    1.00
  YS02001641YS02001644 CONDUIT    365.60     0  02:30      0.47    1.18    1.00
  YS02001647YS02001649 CONDUIT    536.86     0  02:53      0.68    0.28    1.00
  YS02006553YS02006556 CONDUIT    526.65     0  03:06      0.67    0.45    1.00
  YS02006556YS02006558 CONDUIT    526.70     0  03:06      0.67    0.42    1.00
  YSB6556YSB1171       CONDUIT     16.50     0  01:50      0.07    0.02    0.60
  YS02001907YS02006553 CONDUIT    526.63     0  03:06      0.59    0.62    1.00
  YS02006558YS02006561 CONDUIT    753.86     0  03:03      3.22    1.67    0.97
  YS02001633YS02163601 CONDUIT    366.99     0  02:30      0.47    0.39    1.00
  YS02001644YS02001647 CONDUIT    536.65     0  02:53      0.68    0.32    1.00
  YS02001745YS02001748 CONDUIT    494.72     0  02:42      1.51    0.19    0.93
  YS02001748YS02001751 CONDUIT    450.71     0  02:20      1.12    0.23    1.00
  YS02001751YS02001754 CONDUIT    235.62     0  02:19      0.97    0.11    1.00
  YS02001754YS02001757 CONDUIT    242.80     0  02:19      0.33    0.10    1.00
  YS02001882YS02001884 CONDUIT     17.53     0  03:29      0.12    0.02    0.86
  YS02001884YS02001887 CONDUIT     21.59     0  02:17      0.09    0.03    0.96
  YS02001890YS02001895 CONDUIT    267.04     0  02:58      0.44    0.12    0.90
  YS02001895YS02001898 CONDUIT    273.97     0  02:18      0.58    0.48    0.79
  YS02001898YS02001901 CONDUIT    272.36     0  02:19      0.49    0.18    0.88
  YS02001901YS02001904 CONDUIT    270.89     0  02:19      0.46    0.42    0.93
  YS02001904YS02001907 CONDUIT    294.16     0  02:19      0.41    0.10    0.96
  YS02001887YS02001890 CONDUIT    268.26     0  03:00      0.39    0.46    1.00
  YS02001652YS02001649 CONDUIT    261.67     0  02:32      0.58    0.13    1.00
  YS02001655YS02001652 CONDUIT    261.17     0  02:32      1.05    0.13    1.00
  YS02001658YS02001655 CONDUIT    431.12     0  02:25      1.29    0.18    1.00
  YS02001661YS02001658 CONDUIT    617.69     0  02:33      1.59    0.24    1.00
  YS02001664YS02001661 CONDUIT    608.29     0  02:56      1.51    0.19    0.72
  YSB1154YSB6556       CONDUIT     16.24     0  01:49      0.16    0.03    0.49
  YSB1174YSB1171       CONDUIT     13.24     0  01:45      0.06    0.02    0.61
  YSB1171HS02004479    CONDUIT     29.01     0  01:50      0.54    0.02    0.47
  HS02004881HS02006253 CONDUIT     49.92     0  01:50      1.81    0.01    0.28
  YS02001793JiankangQianchi CONDUIT   1106.92     0  02:17     14.86    0.09    1.00
  YS02001757CaochengTiaoxuchi CONDUIT   1359.48     0  02:55      2.22    0.60    1.00
  WSF200WS02003060     CONDUIT    585.01     0  02:06      1.83    0.13    0.34
  1                    CONDUIT    930.29     0  02:54      3.26    0.32    0.39
  2                    CONDUIT    184.50     0  02:00      5.72    0.44    0.47
  3                    CONDUIT    526.02     0  02:00      9.88    0.84    0.71
  4                    CONDUIT      0.00     0  00:00      0.00    0.00    0.00
  CC-Pump-1            PUMP       200.00     0  02:20              1.00
  CC-Pump-2            PUMP       200.00     0  01:50              1.00
  JK-Pump-1            PUMP       300.00     0  04:30              1.00
  JK-Pump-2            PUMP       300.00     0  00:00              1.00
  XR-Pump-1            PUMP        95.00     0  00:00              1.00
  XR-Pump-2            PUMP        95.00     0  00:00              1.00
  XR-Pump-3            PUMP        95.00     0  00:00              1.00
  XR-Pump-4            PUMP        95.00     0  00:30              1.00
  
  
  ***************************
  Flow Classification Summary
  ***************************
  
  -------------------------------------------------------------------------------------
                      Adjusted    ---------- Fraction of Time in Flow Class ---------- 
                       /Actual         Up    Down  Sub   Sup   Up    Down  Norm  Inlet 
  Conduit               Length    Dry  Dry   Dry   Crit  Crit  Crit  Crit  Ltd   Ctrl  
  -------------------------------------------------------------------------------------
  WS02003066WSF200        1.00   0.03  0.03  0.00  0.00  0.94  0.00  0.00  0.62  0.00
  WS02006287WS02006284    1.00   0.04  0.01  0.00  0.58  0.37  0.00  0.00  0.70  0.00
  WS02006284WS02006280    1.00   0.04  0.00  0.00  0.00  0.00  0.00  0.96  0.00  0.00
  WS02006280WS02006229    1.00   0.04  0.00  0.00  0.00  0.00  0.00  0.96  0.00  0.00
  WS02006229WS02006228    1.00   0.00  0.00  0.00  0.99  0.00  0.00  0.01  0.00  0.00
  WS02006256WS02006235    1.00   0.00  0.00  0.00  1.00  0.00  0.00  0.00  0.00  0.00
  WS02006253WS02006251    1.00   0.03  0.01  0.00  0.96  0.00  0.00  0.00  0.00  0.00
  WS02006252WS02006251    1.00   0.07  0.00  0.00  0.00  0.00  0.93  0.00  0.00  0.00
  WS02006251WS02006249    1.00   0.00  0.00  0.00  1.00  0.00  0.00  0.00  0.18  0.00
  WS02006249WS02006248    1.00   0.00  0.02  0.00  0.92  0.00  0.06  0.00  0.00  0.00
  WS02006248WS02006247    1.00   0.02  0.00  0.00  0.98  0.00  0.00  0.00  0.08  0.00
  WS02006247WS02006245    1.00   0.02  0.00  0.00  0.98  0.00  0.00  0.00  0.00  0.00
  WS02006245WS02006243    1.00   0.01  0.00  0.00  0.96  0.00  0.00  0.03  0.01  0.00
  WS02006243WS02006242    1.00   0.01  0.00  0.00  0.99  0.00  0.00  0.00  0.16  0.00
  WS02006242WS02006240    1.00   0.00  0.00  0.00  0.99  0.00  0.00  0.00  0.00  0.00
  WS02006240WS02006239    1.00   0.00  0.00  0.00  0.97  0.00  0.00  0.03  0.01  0.00
  WS02006239WS02006238    1.00   0.00  0.00  0.00  1.00  0.00  0.00  0.00  0.01  0.00
  WS02006238WS02006235    1.00   0.00  0.00  0.00  1.00  0.00  0.00  0.00  0.00  0.00
  WS02006235WS02006234    1.00   0.00  0.00  0.00  0.97  0.00  0.03  0.00  0.00  0.00
  WS02006234WS02006232    1.00   0.00  0.00  0.00  1.00  0.00  0.00  0.00  0.04  0.00
  WS02006232WS02006231    1.00   0.00  0.00  0.00  0.99  0.00  0.00  0.00  0.00  0.00
  WS02006231WS02006230    1.00   0.00  0.00  0.00  0.74  0.00  0.25  0.00  0.00  0.00
  WS02006230WS02006229    1.00   0.00  0.00  0.00  0.99  0.00  0.00  0.01  0.00  0.00
  WS02006228WS02006109    1.00   0.00  0.00  0.00  1.00  0.00  0.00  0.00  0.00  0.00
  WS02006116WS02004401    1.00   0.02  0.00  0.00  0.98  0.00  0.00  0.00  0.00  0.00
  WS02006115WS02006116    1.00   0.02  0.00  0.00  0.97  0.00  0.00  0.01  0.00  0.00
  WS02006113WS02006111    1.00   0.02  0.00  0.00  0.00  0.98  0.00  0.00  0.11  0.00
  WS02006112WS02006115    1.00   0.02  0.00  0.00  0.98  0.00  0.00  0.00  0.00  0.00
  WS02006111WS02006112    1.00   0.02  0.00  0.00  0.98  0.00  0.00  0.00  0.98  0.00
  WS02006110WS02006113    1.00   0.01  0.01  0.00  0.98  0.00  0.00  0.00  0.00  0.00
  WS02006109WS02006110    1.00   0.00  0.01  0.00  0.98  0.00  0.01  0.00  0.00  0.00
  WS02004411WS02004412    1.00   0.04  0.00  0.00  0.96  0.00  0.00  0.00  0.00  0.00
  WS02004401WS02004402    1.00   0.02  0.00  0.00  0.98  0.00  0.00  0.00  0.00  0.00
  WS02004413WS02003067    1.00   0.04  0.01  0.00  0.00  0.00  0.95  0.00  0.00  0.00
  WS02004412WS02004413    1.00   0.04  0.00  0.00  0.96  0.00  0.00  0.00  0.03  0.00
  WS02004410WS02004411    1.00   0.04  0.00  0.00  0.96  0.00  0.00  0.00  0.03  0.00
  WS02004409WS02004410    1.00   0.04  0.00  0.00  0.96  0.00  0.00  0.00  0.03  0.00
  WS02004407WS02004409    1.00   0.04  0.00  0.00  0.96  0.00  0.00  0.00  0.89  0.00
  WS02004406WS02004407    1.00   0.00  0.03  0.00  0.96  0.00  0.00  0.00  0.00  0.00
  WS02004405WS02004406    1.00   0.00  0.00  0.00  1.00  0.00  0.00  0.00  0.01  0.00
  WS02004404WS02004405    1.00   0.00  0.00  0.00  1.00  0.00  0.00  0.00  0.00  0.00
  WS02004403WS02004404    1.00   0.00  0.02  0.00  0.98  0.00  0.00  0.00  0.01  0.00
  WS02004402WS02004403    1.00   0.02  0.00  0.00  0.98  0.00  0.00  0.00  0.00  0.00
  WS02004139WS02001211    1.00   0.00  0.00  0.00  1.00  0.00  0.00  0.00  0.00  0.00
  WS02004138WS02004139    1.00   0.00  0.00  0.00  0.99  0.01  0.00  0.00  1.00  0.00
  WS02003067WS02003066    1.00   0.05  0.01  0.00  0.94  0.00  0.00  0.00  0.00  0.00
  WS02001213WS02003059    1.00   0.00  0.00  0.00  0.99  0.00  0.00  0.00  0.00  0.00
  WS02001212WS02001213    1.00   0.00  0.00  0.00  0.91  0.00  0.09  0.00  0.00  0.00
  WS02001211WS02001212    1.00   0.00  0.00  0.00  1.00  0.00  0.00  0.00  0.00  0.00
  WS02003072WS02003073    1.00   0.00  0.00  0.00  0.00  0.00  0.00  1.00  0.00  0.00
  WS02003069WS02003072    1.00   0.00  0.00  0.00  0.99  0.01  0.00  0.00  0.14  0.00
  WS02003060WS02003069    1.00   0.00  0.00  0.00  0.98  0.02  0.00  0.00  0.04  0.00
  WS02003059WS02003060    1.00   0.00  0.00  0.00  1.00  0.00  0.00  0.00  0.01  0.00
  HS02004901HS02004770    1.00   0.04  0.00  0.00  0.96  0.00  0.00  0.00  0.00  0.00
  HS02004876HS02004881    1.00   0.02  0.00  0.00  0.98  0.00  0.00  0.00  0.00  0.00
  HS02004870HS02004876    1.00   0.00  0.00  0.00  0.99  0.00  0.00  0.00  0.95  0.00
  HS02004842HS02004848    1.00   0.00  0.04  0.00  0.96  0.00  0.00  0.00  0.58  0.00
  HS02004837HS02004842    1.00   0.00  0.00  0.00  0.99  0.01  0.00  0.00  0.11  0.00
  HS02004830HS02004837    1.00   0.00  0.00  0.00  1.00  0.00  0.00  0.00  0.99  0.00
  HS02004824HS02004830    1.00   0.00  0.00  0.00  1.00  0.00  0.00  0.00  0.00  0.00
  HS02004817HS02004824    1.00   0.00  0.00  0.00  1.00  0.00  0.00  0.00  1.00  0.00
  HS02004770HS02004777    1.00   0.00  0.04  0.00  0.96  0.00  0.00  0.00  0.03  0.00
  HS02004799HS02004480    1.00   0.00  0.02  0.00  0.95  0.00  0.02  0.00  0.00  0.00
  HS02004792HS02004799    1.00   0.00  0.00  0.00  0.99  0.01  0.00  0.00  0.98  0.00
  HS02004788HS02004792    1.00   0.00  0.00  0.00  0.99  0.01  0.00  0.00  0.98  0.00
  HS02004785HS02004788    1.00   0.00  0.00  0.00  1.00  0.00  0.00  0.00  0.00  0.00
  HS02004777HS02004785    1.00   0.00  0.00  0.00  1.00  0.00  0.00  0.00  0.12  0.00
  HS02004480HS02004478    1.00   0.04  0.00  0.00  0.62  0.00  0.00  0.34  0.00  0.00
  HS02004479HS02004480    1.00   0.03  0.00  0.00  0.97  0.00  0.00  0.00  0.12  0.00
  HS02004862HS02004870    1.00   0.00  0.00  0.00  1.00  0.00  0.00  0.00  0.04  0.00
  HS02004848HS02004852    1.00   0.04  0.00  0.00  0.96  0.00  0.00  0.00  0.77  0.00
  HS02004856HS02004862    1.00   0.00  0.05  0.00  0.95  0.00  0.00  0.00  0.83  0.00
  HS02004852HS02004856    1.00   0.04  0.00  0.00  0.96  0.00  0.00  0.00  0.86  0.00
  HS02004802HS02004478    1.00   0.04  0.00  0.00  0.96  0.00  0.00  0.00  0.03  0.00
  HS02004478WS02006287    1.00   0.05  0.00  0.00  0.69  0.26  0.00  0.00  0.68  0.00
  HS02004817HS02004807    1.00   0.00  0.04  0.00  0.96  0.00  0.00  0.00  0.01  0.00
  HS02004807HS02004802    1.00   0.04  0.00  0.00  0.96  0.00  0.00  0.00  0.00  0.00
  YS02001759YS02001757    1.00   0.00  0.00  0.00  1.00  0.00  0.00  0.00  0.16  0.00
  YS02001762YS02001759    1.00   0.00  0.00  0.00  1.00  0.00  0.00  0.00  0.03  0.00
  YS02001765YS02001762    1.00   0.00  0.00  0.00  1.00  0.00  0.00  0.00  0.14  0.00
  YS02001770YS02001767    1.00   0.00  0.00  0.00  1.00  0.00  0.00  0.00  0.00  0.00
  YS02001774YS02001770    1.00   0.00  0.04  0.00  0.96  0.00  0.00  0.00  0.03  0.00
  YS02001779YS02001774    1.00   0.00  0.00  0.00  1.00  0.00  0.00  0.00  0.18  0.00
  YS02001649YS02001757    1.00   0.00  0.00  0.00  1.00  0.00  0.00  0.00  0.16  0.00
  YS02001767YS02001765    1.00   0.00  0.00  0.00  1.00  0.00  0.00  0.00  0.00  0.00
  YS02006561YS02001783    1.00   0.05  0.00  0.00  0.29  0.66  0.00  0.00  0.61  0.00
  YS02001783YS02001784    1.00   0.00  0.05  0.00  0.95  0.00  0.00  0.00  0.00  0.00
  YS02001784YS02001785    1.00   0.00  0.00  0.00  1.00  0.00  0.00  0.00  0.17  0.00
  YS02001788YS02001790    1.00   0.00  0.00  0.00  0.36  0.64  0.00  0.00  0.52  0.00
  YS02001790YS02001791    1.00   0.00  0.00  0.00  0.32  0.68  0.00  0.00  0.51  0.00
  YS02001791YS02001793    1.00   0.00  0.00  0.00  0.33  0.67  0.00  0.00  0.01  0.00
  YS02001910YS02001907    1.00   0.00  0.00  0.00  0.98  0.00  0.00  0.02  0.12  0.00
  YS02001786YS02001788    1.00   0.00  0.00  0.00  0.35  0.65  0.00  0.00  0.00  0.00
  YS02001915YS02001910    1.00   0.00  0.00  0.00  0.99  0.01  0.00  0.00  0.16  0.00
  YS02001918YS02001915    1.00   0.00  0.01  0.00  0.98  0.01  0.00  0.00  0.60  0.00
  YS02001923YS02001920    1.00   0.00  0.00  0.00  1.00  0.00  0.00  0.00  0.93  0.00
  YS02001926YS02001923    1.00   0.00  0.03  0.00  0.00  0.00  0.97  0.00  0.00  0.00
  YS02001929YS02001926    1.00   0.00  0.04  0.00  0.96  0.00  0.00  0.00  0.87  0.00
  YS02001920YS02001918    1.00   0.00  0.01  0.00  0.99  0.00  0.00  0.00  0.00  0.00
  YS02001629YS02163301    1.00   0.04  0.00  0.00  0.95  0.00  0.00  0.00  0.00  0.00
  YS02001619YS02001622    1.00   0.04  0.00  0.00  0.96  0.00  0.00  0.00  0.00  0.00
  YS02001622YS02001625    1.00   0.04  0.00  0.00  0.96  0.00  0.00  0.00  0.04  0.00
  YS02001625YS02001629    1.00   0.04  0.01  0.00  0.93  0.00  0.02  0.00  0.00  0.00
  YS02163301YS02001633    1.00   0.00  0.04  0.00  0.96  0.00  0.00  0.00  0.00  0.00
  YS02163601YS02164001    1.00   0.00  0.03  0.00  0.97  0.00  0.00  0.00  0.00  0.00
  YS02164001YS02001641    1.00   0.01  0.03  0.00  0.97  0.00  0.00  0.00  0.06  0.00
  YS02001641YS02001644    1.00   0.00  0.01  0.00  0.99  0.00  0.00  0.00  0.00  0.00
  YS02001647YS02001649    1.00   0.00  0.05  0.00  0.95  0.00  0.00  0.00  0.01  0.00
  YS02006553YS02006556    1.00   0.01  0.00  0.00  0.99  0.00  0.00  0.00  0.03  0.00
  YS02006556YS02006558    1.00   0.00  0.00  0.00  1.00  0.00  0.00  0.00  0.00  0.00
  YSB6556YSB1171          1.00   0.03  0.01  0.00  0.96  0.00  0.00  0.00  0.00  0.00
  YS02001907YS02006553    1.00   0.00  0.02  0.00  0.98  0.00  0.00  0.00  0.00  0.00
  YS02006558YS02006561    1.00   0.05  0.00  0.00  0.06  0.89  0.00  0.00  0.54  0.00
  YS02001633YS02163601    1.00   0.00  0.01  0.00  0.99  0.00  0.00  0.00  0.15  0.00
  YS02001644YS02001647    1.00   0.00  0.05  0.00  0.95  0.00  0.00  0.00  0.00  0.00
  YS02001745YS02001748    1.00   0.00  0.00  0.00  0.90  0.01  0.00  0.09  0.06  0.00
  YS02001748YS02001751    1.00   0.00  0.00  0.00  0.98  0.02  0.00  0.00  0.14  0.00
  YS02001751YS02001754    1.00   0.00  0.00  0.00  0.95  0.00  0.00  0.05  0.02  0.00
  YS02001754YS02001757    1.00   0.00  0.00  0.00  0.99  0.01  0.00  0.00  0.18  0.00
  YS02001882YS02001884    1.00   0.04  0.00  0.00  0.95  0.00  0.00  0.00  0.00  0.00
  YS02001884YS02001887    1.00   0.03  0.01  0.00  0.96  0.00  0.00  0.00  0.00  0.00
  YS02001890YS02001895    1.00   0.00  0.04  0.00  0.95  0.00  0.00  0.00  0.00  0.00
  YS02001895YS02001898    1.00   0.05  0.00  0.00  0.95  0.00  0.01  0.00  0.00  0.00
  YS02001898YS02001901    1.00   0.05  0.00  0.00  0.95  0.00  0.00  0.00  0.01  0.00
  YS02001901YS02001904    1.00   0.05  0.00  0.00  0.95  0.00  0.00  0.00  0.00  0.00
  YS02001904YS02001907    1.00   0.00  0.04  0.00  0.95  0.00  0.00  0.00  0.00  0.00
  YS02001887YS02001890    1.00   0.00  0.00  0.00  0.98  0.00  0.02  0.00  0.00  0.00
  YS02001652YS02001649    1.00   0.00  0.00  0.00  1.00  0.00  0.00  0.00  0.16  0.00
  YS02001655YS02001652    1.00   0.00  0.00  0.00  0.95  0.00  0.00  0.05  0.02  0.00
  YS02001658YS02001655    1.00   0.00  0.04  0.00  0.93  0.02  0.00  0.00  0.05  0.00
  YS02001661YS02001658    1.00   0.04  0.00  0.00  0.90  0.06  0.00  0.00  0.05  0.00
  YS02001664YS02001661    1.00   0.04  0.00  0.00  0.84  0.12  0.00  0.00  0.22  0.00
  YSB1154YSB6556          1.00   0.04  0.00  0.00  0.96  0.00  0.00  0.00  0.02  0.00
  YSB1174YSB1171          1.00   0.03  0.01  0.00  0.96  0.00  0.00  0.00  0.00  0.00
  YSB1171HS02004479       1.00   0.03  0.00  0.00  0.97  0.00  0.00  0.00  0.10  0.00
  HS02004881HS02006253    1.00   0.03  0.00  0.00  0.81  0.02  0.00  0.15  0.68  0.00
  YS02001793JiankangQianchi    1.00   0.00  0.00  0.00  0.51  0.49  0.00  0.00  0.14  0.00
  YS02001757CaochengTiaoxuchi    1.00   0.00  0.06  0.00  0.93  0.01  0.00  0.00  0.00  0.00
  WSF200WS02003060        1.00   0.00  0.03  0.00  0.71  0.26  0.00  0.00  0.15  0.00
  1                       1.00   0.00  0.00  0.00  0.00  1.00  0.00  0.00  0.31  0.00
  2                       1.00   0.45  0.00  0.00  0.00  0.55  0.00  0.00  0.08  0.00
  3                       1.00   0.12  0.00  0.00  0.00  0.88  0.00  0.00  0.23  0.00
  4                       1.00   1.00  0.00  0.00  0.00  0.00  0.00  0.00  0.00  0.00
  
  
  *************************
  Conduit Surcharge Summary
  *************************
  
  ----------------------------------------------------------------------------
                                                           Hours        Hours 
                         --------- Hours Full --------   Above Full   Capacity
  Conduit                Both Ends  Upstream  Dnstream   Normal Flow   Limited
  ----------------------------------------------------------------------------
  WS02006229WS02006228        3.55      3.73      3.55      5.18         3.55
  WS02006256WS02006235        6.36      6.36      7.32      2.15         0.01
  WS02006253WS02006251        0.01      0.01      0.05      0.01         0.01
  WS02006252WS02006251        2.65      2.65      3.50      3.28         0.01
  WS02006251WS02006249        0.01      0.01      0.01      2.77         0.01
  WS02006249WS02006248        0.01      0.01      0.01      5.07         0.01
  WS02006247WS02006245        0.01      0.02      0.01      5.42         0.01
  WS02006245WS02006243        0.01      0.01      0.32      0.02         0.01
  WS02006243WS02006242        0.54      0.54      2.74      0.01         0.01
  WS02006242WS02006240        0.78      0.78      3.04      3.60         0.01
  WS02006240WS02006239        1.07      1.07      1.17      0.22         0.01
  WS02006239WS02006238        2.98      2.98      3.06      0.46         0.25
  WS02006238WS02006235        2.98      2.98      3.30      0.01         0.01
  WS02006235WS02006234        0.92      0.92      2.83      6.37         0.01
  WS02006234WS02006232        1.24      1.24      3.57      0.01         0.01
  WS02006232WS02006231        0.41      0.41      3.57      0.01         0.01
  WS02006231WS02006230        0.01      0.01      0.59      6.37         0.01
  WS02006230WS02006229        4.52      4.92      4.52      6.46         4.52
  WS02006228WS02006109        3.64      4.01      3.64      5.94         3.64
  WS02006112WS02006115        0.01      0.01      1.23      0.01         0.01
  WS02006111WS02006112        0.01      0.01      5.34      0.01         0.01
  WS02006110WS02006113        0.01      0.01      3.86      0.01         0.01
  WS02006109WS02006110        0.97      0.97      4.01      0.98         0.01
  WS02004405WS02004406        0.01      0.01      0.01      1.11         0.01
  WS02004404WS02004405        0.01      0.01      0.01      6.25         0.01
  WS02003072WS02003073        0.01      0.01      0.01      5.80         0.01
  YS02001759YS02001757        5.97      5.97      6.03      0.01         0.01
  YS02001762YS02001759        5.94      5.94      5.97      0.01         0.01
  YS02001765YS02001762        5.92      5.92      5.94      0.01         0.01
  YS02001770YS02001767        5.86      5.87      5.88      0.01         0.93
  YS02001774YS02001770        5.81      5.81      5.93      0.01         0.01
  YS02001779YS02001774        5.61      5.61      5.93      0.01         0.01
  YS02001649YS02001757        5.95      5.95      6.03      0.01         0.01
  YS02001767YS02001765        5.88      5.88      5.92      0.01         0.01
  YS02006561YS02001783        0.01      0.01      0.97      0.01         0.01
  YS02001783YS02001784        0.97      0.97      1.03      0.31         0.28
  YS02001784YS02001785        0.98      1.03      0.98      1.89         0.98
  YS02001788YS02001790        0.95      0.95      2.06      0.01         0.01
  YS02001790YS02001791        2.06      2.06      2.09      0.01         0.01
  YS02001791YS02001793        2.09      2.09      2.25      0.01         0.01
  YS02001910YS02001907        0.21      0.21      1.24      0.01         0.01
  YS02001786YS02001788        0.95      0.98      0.95      1.48         0.94
  YS02001915YS02001910        0.01      0.01      0.21      0.01         0.01
  YS02001629YS02163301        5.81      5.81      5.85      0.01         0.01
  YS02001619YS02001622        5.30      5.30      5.40      0.01         0.02
  YS02001622YS02001625        5.40      5.40      5.71      0.01         0.01
  YS02001625YS02001629        5.34      5.34      5.71      0.01         0.01
  YS02163301YS02001633        5.85      5.85      5.92      0.01         0.01
  YS02163601YS02164001        5.92      5.92      5.95      0.01         0.01
  YS02164001YS02001641        5.92      5.92      5.93      0.01         0.04
  YS02001641YS02001644        5.93      5.93      5.93      0.67         1.38
  YS02001647YS02001649        5.71      5.71      5.95      0.01         0.01
  YS02006553YS02006556        0.68      0.68      1.32      0.01         0.01
  YS02006556YS02006558        1.04      1.04      1.42      0.01         0.01
  YS02001907YS02006553        1.93      1.93      2.14      0.01         0.01
  YS02006558YS02006561        0.01      0.60      0.01      1.75         0.01
  YS02001633YS02163601        5.91      5.91      5.95      0.01         0.01
  YS02001644YS02001647        5.71      5.71      5.93      0.01         0.01
  YS02001745YS02001748        0.01      0.01      3.72      0.01         0.01
  YS02001748YS02001751        4.30      4.30      5.32      0.01         0.01
  YS02001751YS02001754        5.32      5.32      5.65      0.01         0.01
  YS02001754YS02001757        5.71      5.71      6.03      0.01         0.01
  YS02001890YS02001895        0.01      0.01      0.26      0.01         0.01
  YS02001904YS02001907        0.01      0.01      1.35      0.01         0.01
  YS02001887YS02001890        0.02      0.02      0.15      0.01         0.01
  YS02001652YS02001649        5.71      5.71      5.95      0.01         0.01
  YS02001655YS02001652        5.36      5.36      5.69      0.01         0.01
  YS02001658YS02001655        3.77      3.77      5.36      0.01         0.01
  YS02001661YS02001658        0.14      0.14      3.77      0.01         0.01
  YS02001664YS02001661        0.01      0.01      0.84      0.01         0.01
  YS02001793JiankangQianchi        2.20      2.20      3.14      0.01         0.01
  YS02001757CaochengTiaoxuchi        4.94      4.94      6.03      0.01         0.01
  
  
  ***************
  Pumping Summary
  ***************
  
  ---------------------------------------------------------------------------------------------------------
                                                  Min       Avg       Max     Total     Power    % Time Off
                        Percent   Number of      Flow      Flow      Flow    Volume     Usage    Pump Curve
  Pump                 Utilized   Start-Ups       LPS       LPS       LPS  10^6 ltr     Kw-hr    Low   High
  ---------------------------------------------------------------------------------------------------------
  CC-Pump-1               72.33           3      0.00    159.69    200.00     3.240      5.35    0.0    7.4
  CC-Pump-2               63.82           6      0.00    162.04    200.00     2.940      6.15    0.0   11.8
  JK-Pump-1               72.33           8      0.00    146.31    300.00     2.559     37.07    0.0    0.0
  JK-Pump-2               82.99           6      0.00    174.17    300.00     3.218     41.44    0.0    0.0
  XR-Pump-1               95.73           9      0.00     70.34     95.00     1.995     22.44    0.0    0.0
  XR-Pump-2               89.35           5      0.00     78.60     95.00     1.967     22.34    0.0    0.0
  XR-Pump-3               87.23           6      0.00     73.72     95.00     1.910     22.43    0.0    0.0
  XR-Pump-4               85.09           3      0.00     66.58     95.00     1.653     20.07    0.0    0.0
  

  Analysis begun on:  Mon Dec 20 20:22:56 2021
  Analysis ended on:  Mon Dec 20 20:23:00 2021
  Total elapsed time: 00:00:04