
  EPA STORM WATER MANAGEMENT MODEL - VERSION 5.1 (Build 5.3.0.dev0)
  --------------------------------------------------------------

  WARNING 04: minimum elevation drop used for Conduit WS02004404WS02004405
  WARNING 03: negative offset ignored for Link YS02001904YS02001907
  
  *********************************************************
  NOTE: The summary statistics displayed in this report are
  based on results found at every computational time step,  
  not just on results from each reporting time step.
  *********************************************************
  
  ****************
  Analysis Options
  ****************
  Flow Units ............... LPS
  Process Models:
    Rainfall/Runoff ........ YES
    RDII ................... NO
    Snowmelt ............... NO
    Groundwater ............ NO
    Flow Routing ........... YES
    Ponding Allowed ........ NO
    Water Quality .......... NO
  Infiltration Method ...... HORTON
  Flow Routing Method ...... DYNWAVE
  Surcharge Method ......... EXTRAN
  Starting Date ............ 08/28/2015 08:00:00
  Ending Date .............. 08/28/2015 15:50:00
  Antecedent Dry Days ...... 8.0
  Report Time Step ......... 00:01:00
  Wet Time Step ............ 00:01:00
  Dry Time Step ............ 00:01:00
  Routing Time Step ........ 5.00 sec
  Variable Time Step ....... YES
  Maximum Trials ........... 8
  Number of Threads ........ 4
  Head Tolerance ........... 0.001500 m
  
  
  **************************        Volume         Depth
  Runoff Quantity Continuity     hectare-m            mm
  **************************     ---------       -------
  Total Precipitation ......         5.151        11.277
  Evaporation Loss .........         0.000         0.000
  Infiltration Loss ........         1.323         2.897
  Surface Runoff ...........         2.817         6.167
  Final Storage ............         1.011         2.215
  Continuity Error (%) .....        -0.015
  
  
  **************************        Volume        Volume
  Flow Routing Continuity        hectare-m      10^6 ltr
  **************************     ---------     ---------
  Dry Weather Inflow .......         0.616         6.165
  Wet Weather Inflow .......         2.816        28.156
  Groundwater Inflow .......         0.000         0.000
  RDII Inflow ..............         0.000         0.000
  External Inflow ..........         0.102         1.024
  External Outflow .........         1.715        17.150
  Flooding Loss ............         1.289        12.893
  Evaporation Loss .........         0.000         0.000
  Exfiltration Loss ........         0.000         0.000
  Initial Stored Volume ....         0.076         0.761
  Final Stored Volume ......         0.635         6.352
  Continuity Error (%) .....        -0.802
  
  
  *************************
  Highest Continuity Errors
  *************************
  Node HS02004842 (17.03%)
  Node YS02001884 (11.01%)
  Node YS02001774 (5.22%)
  Node YSB1171 (3.39%)
  Node HS02004817 (3.15%)
  
  
  ***************************
  Time-Step Critical Elements
  ***************************
  Link WS02006252WS02006251 (55.14%)
  Link 3 (33.58%)
  Link WS02006238WS02006235 (5.27%)
  
  
  ********************************
  Highest Flow Instability Indexes
  ********************************
  Link YS02001629YS02163301 (37)
  Link WS02006113WS02006111 (36)
  Link YS02001619YS02001622 (36)
  Link YS02163301YS02001633 (36)
  Link YS02163601YS02164001 (36)
  
  
  *************************
  Routing Time Step Summary
  *************************
  Minimum Time Step           :     0.50 sec
  Average Time Step           :     0.80 sec
  Maximum Time Step           :     5.00 sec
  Percent in Steady State     :    -0.00
  Average Iterations per Step :     4.64
  Percent Not Converging      :    24.83
  
  
  ***************************
  Subcatchment Runoff Summary
  ***************************
  
  ------------------------------------------------------------------------------------------------------------------------------
                            Total      Total      Total      Total     Imperv       Perv      Total       Total     Peak  Runoff
                           Precip      Runon       Evap      Infil     Runoff     Runoff     Runoff      Runoff   Runoff   Coeff
  Subcatchment                 mm         mm         mm         mm         mm         mm         mm    10^6 ltr      LPS
  ------------------------------------------------------------------------------------------------------------------------------
  sub0                      11.28       0.00       0.00       0.79       9.22       0.00       9.22        0.01     1.44   0.818
  sub1                      11.28       0.00       0.00       1.24       8.78       0.00       8.78        0.06    10.11   0.778
  sub2                      11.28       0.00       0.00       4.17       6.20       0.00       6.20        0.06     9.79   0.549
  sub3                      11.28       0.00       0.00       4.17       6.16       0.00       6.16        0.14    22.44   0.546
  sub4                      11.28       0.00       0.00       1.24       8.63       0.00       8.63        0.18    27.35   0.765
  sub5                      11.28       0.00       0.00       0.79       9.17       0.00       9.17        0.10    18.00   0.813
  sub7                      11.28       0.00       0.00       1.01       9.01       0.00       9.01        0.03     5.34   0.799
  sub8                      11.28       0.00       0.00       1.01       9.00       0.00       9.00        0.06    10.08   0.798
  sub9                      11.28       0.00       0.00       1.01       8.99       0.00       8.99        0.04     7.58   0.798
  sub10                     11.28       0.00       0.00       0.90       9.08       0.00       9.08        0.10    17.43   0.805
  sub11                     11.28       0.00       0.00       0.90       9.10       0.00       9.10        0.11    18.56   0.807
  sub12                     11.28       0.00       0.00       1.47       8.62       0.00       8.62        0.08    13.79   0.765
  sub14                     11.28       0.00       0.00       1.01       8.99       0.00       8.99        0.09    14.98   0.797
  sub15                     11.28       0.00       0.00       3.38       6.91       0.00       6.91        0.12    20.76   0.613
  sub16                     11.28       0.00       0.00       3.72       6.64       0.00       6.64        0.07    12.34   0.589
  sub17                     11.28       0.00       0.00       3.61       6.73       0.00       6.73        0.06    10.18   0.597
  sub22                     11.28       0.00       0.00       4.85       5.64       0.00       5.64        0.36    62.58   0.500
  sub23                     11.28       0.00       0.00       4.17       6.23       0.00       6.23        0.30    52.29   0.553
  sub60                     11.28       0.00       0.00       1.35       7.08       0.00       7.08        2.14   214.31   0.627
  sub61                     11.28       0.00       0.00       1.92       7.22       0.00       7.22        2.23   246.69   0.640
  sub62                     11.28       0.00       0.00       0.90       7.84       0.00       7.84        2.41   259.66   0.695
  sub63                     11.28       0.00       0.00       3.27       6.33       0.00       6.33        1.92   219.77   0.561
  sub64                     11.28       0.00       0.00       1.69       6.79       0.00       6.79        2.06   204.52   0.602
  sub65                     11.28       0.00       0.00       1.47       6.90       0.00       6.90        2.12   208.50   0.612
  sub66                     11.28       0.00       0.00       3.27       5.83       0.00       5.83        1.79   183.42   0.517
  sub67                     11.28       0.00       0.00       0.90       8.30       0.00       8.30        2.56   301.39   0.736
  sub68                     11.28       0.00       0.00       1.58       7.60       0.00       7.60        2.34   264.96   0.674
  sub69                     11.28       0.00       0.00       1.69       7.90       0.00       7.90        1.85   237.25   0.701
  sub70                     11.28       8.07       0.00       6.54      10.49       0.03      10.52        2.41   252.63   0.544
  sub71                     11.28       0.00       0.00       0.90       7.63       0.00       7.63        1.80   186.96   0.676
  sub72                     11.28       0.00       0.00       0.79       6.02       0.00       6.02        1.23   100.40   0.534
  sub73                     11.28      10.24       0.00       7.30      11.40       0.02      11.42        2.68   238.40   0.531
  sub74                     11.28       0.00       0.00       8.46       2.36       0.00       2.36        0.94   126.51   0.209
  
  
  ******************
  Node Depth Summary
  ******************
  
  ---------------------------------------------------------------------------------
                                 Average  Maximum  Maximum  Time of Max    Reported
                                   Depth    Depth      HGL   Occurrence   Max Depth
  Node                 Type       Meters   Meters   Meters  days hr:min      Meters
  ---------------------------------------------------------------------------------
  WS02001211           JUNCTION     0.61     0.77     5.61     0  02:51        0.77
  WS02001212           JUNCTION     0.34     0.49     5.55     0  02:51        0.48
  WS02001213           JUNCTION     0.58     0.73     5.50     0  02:51        0.73
  WS02003069           JUNCTION     0.42     0.55     5.14     0  02:53        0.55
  WS02003072           JUNCTION     0.49     0.61     4.98     0  02:53        0.61
  WS02003073           JUNCTION     0.29     0.38     4.44     0  02:54        0.38
  WS02003060           JUNCTION     0.37     0.49     5.42     0  02:52        0.49
  WS02003066           JUNCTION     0.24     0.31     5.86     0  02:09        0.31
  WS02003059           JUNCTION     0.65     0.79     5.47     0  02:52        0.79
  WS02003067           JUNCTION     0.58     0.72     6.04     0  02:09        0.72
  WS02004401           JUNCTION     0.69     0.90     6.90     0  02:07        0.90
  WS02004402           JUNCTION     0.72     0.92     6.88     0  02:07        0.92
  WS02004403           JUNCTION     0.74     0.93     6.86     0  02:07        0.93
  WS02004404           JUNCTION     0.82     1.00     6.85     0  02:07        1.00
  WS02004406           JUNCTION     0.82     0.99     6.82     0  02:07        0.99
  WS02004409           JUNCTION     0.51     0.71     6.48     0  02:08        0.71
  WS02004410           JUNCTION     0.53     0.72     6.44     0  02:08        0.72
  WS02004411           JUNCTION     0.54     0.72     6.40     0  02:08        0.72
  WS02004412           JUNCTION     0.56     0.73     6.37     0  02:09        0.73
  WS02004413           JUNCTION     0.72     0.88     6.35     0  02:09        0.88
  WS02004405           JUNCTION     0.81     0.99     6.84     0  02:07        0.99
  WS02006109           JUNCTION     0.78     1.03     7.65     0  02:19        1.02
  WS02006110           JUNCTION     0.77     0.96     7.54     0  02:19        0.96
  WS02006111           JUNCTION     0.23     0.30     7.01     0  02:23        0.30
  WS02006112           JUNCTION     0.87     1.19     7.07     0  02:26        1.15
  WS02006113           JUNCTION     0.35     0.48     7.37     0  02:22        0.48
  WS02006115           JUNCTION     0.59     0.80     6.94     0  02:06        0.80
  WS02006116           JUNCTION     0.67     0.88     6.92     0  02:06        0.88
  WS02006230           JUNCTION     0.76     1.09     7.84     0  02:21        1.09
  WS02006231           JUNCTION     0.51     0.80     7.92     0  02:19        0.77
  WS02006232           JUNCTION     0.65     0.91     7.95     0  02:19        0.89
  WS02006234           JUNCTION     0.57     0.86     8.02     0  02:21        0.84
  WS02006235           JUNCTION     0.60     0.89     8.05     0  02:21        0.87
  WS02006238           JUNCTION     0.62     0.92     8.07     0  02:21        0.90
  WS02006240           JUNCTION     0.53     0.83     8.12     0  02:20        0.82
  WS02006242           JUNCTION     0.59     0.88     8.15     0  02:20        0.87
  WS02006243           JUNCTION     0.47     0.76     8.18     0  02:20        0.73
  WS02006245           JUNCTION     0.45     0.71     8.20     0  02:21        0.70
  WS02006247           JUNCTION     0.47     0.82     8.32     0  02:19        0.71
  WS02006248           JUNCTION     0.41     0.65     8.24     0  02:21        0.64
  WS02006249           JUNCTION     0.44     0.65     8.25     0  02:21        0.65
  WS02006239           JUNCTION     0.58     0.88     8.09     0  02:21        0.87
  WS02006251           JUNCTION     0.44     0.69     8.36     0  02:20        0.69
  WS02006252           JUNCTION     0.38     0.59     8.84     0  02:23        0.59
  WS02006253           JUNCTION     0.46     0.72     8.36     0  02:20        0.71
  WS02006256           JUNCTION     1.02     1.21     8.15     0  02:19        1.21
  WS02004138           JUNCTION     0.13     0.19     7.44     0  04:40        0.19
  WS02004407           JUNCTION     0.23     0.31     6.62     0  02:08        0.31
  WS02006228           JUNCTION     0.79     1.09     7.74     0  02:19        1.08
  WS02006229           JUNCTION     0.77     1.09     7.78     0  02:19        1.08
  WS02006280           JUNCTION     0.07     0.16     8.44     0  02:09        0.16
  WS02006284           JUNCTION     0.37     0.51     8.91     0  02:09        0.51
  WS02006287           JUNCTION     0.10     0.24     9.20     0  02:09        0.24
  WSF200               JUNCTION     0.23     0.32     5.55     0  02:13        0.32
  HS02004901           JUNCTION     0.13     0.25    10.07     0  02:07        0.25
  HS02004881           JUNCTION     0.01     0.03     9.06     0  02:08        0.03
  HS02004876           JUNCTION     0.05     0.11     9.14     0  02:05        0.11
  HS02004870           JUNCTION     0.02     0.05     9.34     0  02:09        0.05
  HS02004862           JUNCTION     0.02     0.06     9.44     0  02:09        0.06
  HS02004856           JUNCTION     0.08     0.11     9.54     0  02:09        0.11
  HS02004852           JUNCTION     0.01     0.04     9.55     0  02:09        0.04
  HS02004848           JUNCTION     0.01     0.04     9.64     0  02:09        0.04
  HS02004842           JUNCTION     0.33     0.37     9.64     0  02:09        0.37
  HS02004837           JUNCTION     0.03     0.06     9.64     0  02:09        0.06
  HS02004830           JUNCTION     0.04     0.07     9.54     0  02:09        0.07
  HS02004824           JUNCTION     0.02     0.05     9.45     0  02:10        0.05
  HS02004817           JUNCTION     0.44     0.56     9.40     0  02:09        0.56
  HS02004807           JUNCTION     0.13     0.23     9.40     0  02:09        0.23
  HS02004802           JUNCTION     0.17     0.26     9.39     0  02:09        0.26
  HS02004799           JUNCTION     0.13     0.28     9.49     0  02:07        0.28
  HS02004792           JUNCTION     0.04     0.11     9.63     0  02:07        0.11
  HS02004788           JUNCTION     0.03     0.08     9.98     0  02:08        0.08
  HS02004785           JUNCTION     0.05     0.15    10.05     0  02:08        0.15
  HS02004777           JUNCTION     0.15     0.27    10.06     0  02:07        0.27
  HS02004770           JUNCTION     0.12     0.24    10.07     0  02:07        0.24
  HS02004480           JUNCTION     0.09     0.22     9.46     0  02:07        0.22
  HS02004479           JUNCTION     0.12     0.26     9.46     0  02:08        0.26
  HS02004478           JUNCTION     0.06     0.15     9.38     0  02:08        0.15
  YS02001745           JUNCTION     0.68     0.87     8.39     0  03:14        0.87
  YS02001748           JUNCTION     1.07     2.22     9.30     0  02:28        1.30
  YS02001751           JUNCTION     1.25     2.07     8.95     0  02:28        1.85
  YS02001754           JUNCTION     1.51     2.02     8.62     0  02:20        1.84
  YS02001762           JUNCTION     1.71     2.03     8.43     0  03:11        2.01
  YS02001765           JUNCTION     1.66     1.97     8.42     0  03:16        1.96
  YS02001767           JUNCTION     1.63     1.93     8.42     0  03:16        1.92
  YS02001770           JUNCTION     1.62     1.91     8.40     0  03:10        1.90
  YS02001774           JUNCTION     1.69     1.98     8.40     0  02:28        1.96
  YS02001779           JUNCTION     1.44     1.68     8.37     0  02:27        1.68
  YS02001882           JUNCTION     0.46     1.18     7.89     0  02:58        1.17
  YS02001884           JUNCTION     0.56     1.28     7.90     0  02:57        1.27
  YS02001759           JUNCTION     1.74     2.07     8.43     0  03:22        2.05
  YS02001887           JUNCTION     0.64     1.37     7.90     0  02:57        1.35
  YS02001890           JUNCTION     0.67     1.39     7.90     0  02:56        1.38
  YS02001898           JUNCTION     0.44     1.14     7.88     0  02:57        1.14
  YS02001901           JUNCTION     0.55     1.27     7.88     0  02:58        1.27
  YS02001904           JUNCTION     0.53     1.24     7.87     0  02:57        1.24
  YS02001907           JUNCTION     0.86     1.59     7.88     0  02:58        1.58
  YS02001910           JUNCTION     0.65     1.37     7.88     0  02:57        1.36
  YS02001915           JUNCTION     0.45     1.16     7.88     0  02:58        1.16
  YS02001918           JUNCTION     0.20     0.81     7.88     0  02:58        0.81
  YS02001619           JUNCTION     1.23     1.61     8.54     0  02:22        1.59
  YS02001629           JUNCTION     1.58     1.85     8.40     0  02:23        1.84
  YS02001641           JUNCTION     1.68     1.97     8.41     0  02:31        1.93
  YS02001644           JUNCTION     1.68     1.92     8.35     0  02:31        1.92
  YS02001652           JUNCTION     1.52     2.14     8.74     0  03:00        1.89
  YS02001655           JUNCTION     1.29     2.20     9.05     0  02:14        1.72
  YS02001920           JUNCTION     0.30     0.87     7.88     0  02:58        0.87
  YS02001923           JUNCTION     0.14     0.62     7.88     0  02:58        0.62
  YS02001926           JUNCTION     0.21     0.44     7.88     0  02:57        0.44
  YS02001929           JUNCTION     0.10     0.17     7.87     0  02:58        0.17
  YS02001658           JUNCTION     1.02     2.30     9.44     0  02:22        1.62
  YS02001661           JUNCTION     0.79     2.29     9.69     0  03:00        1.54
  YS02001664           JUNCTION     0.34     0.57     8.49     0  02:44        0.56
  YS02001622           JUNCTION     1.25     1.62     8.52     0  02:22        1.57
  YS02001633           JUNCTION     1.67     1.99     8.45     0  02:30        1.93
  YS02001649           JUNCTION     1.72     2.05     8.44     0  02:23        2.05
  YS02001757           JUNCTION     1.84     2.17     8.43     0  03:07        2.15
  YS02001895           JUNCTION     0.43     1.14     7.89     0  02:57        1.13
  YS02001625           JUNCTION     1.53     1.78     8.38     0  02:22        1.78
  YS02163301           JUNCTION     1.61     1.93     8.45     0  02:30        1.87
  YS02163601           JUNCTION     1.72     2.04     8.44     0  02:31        1.98
  YS02164001           JUNCTION     1.66     1.98     8.44     0  02:31        1.91
  YS02001647           JUNCTION     1.51     1.81     8.42     0  02:32        1.78
  YSB1154              JUNCTION     0.26     0.41     9.47     0  02:08        0.41
  YSB6556              JUNCTION     0.16     0.30     9.47     0  02:08        0.30
  YSB1174              JUNCTION     0.21     0.36     9.47     0  02:08        0.36
  YSB1171              JUNCTION     0.41     0.56     9.47     0  02:08        0.56
  YS02006553           JUNCTION     0.86     1.58     7.87     0  02:58        1.57
  YS02006561           JUNCTION     0.26     0.80     7.46     0  02:58        0.80
  YS02006556           JUNCTION     0.83     1.53     7.84     0  02:58        1.53
  YS02006558           JUNCTION     0.87     1.57     7.84     0  02:58        1.57
  YS02001783           JUNCTION     0.51     1.42     7.56     0  02:04        1.22
  YS02001784           JUNCTION     0.54     1.30     7.37     0  02:04        1.20
  YS02001786           JUNCTION     0.50     1.31     7.34     0  02:04        1.09
  YS02001788           JUNCTION     0.45     1.21     7.19     0  02:03        1.00
  YS02001790           JUNCTION     0.59     1.96     7.60     0  02:02        1.21
  YS02001791           JUNCTION     0.60     1.61     7.08     0  02:02        1.24
  YS02001793           JUNCTION     0.86     1.91     6.74     0  02:02        1.79
  WS02004139           JUNCTION     0.54     0.71     5.62     0  02:50        0.71
  WSC                  OUTFALL      0.29     0.38     1.05     0  02:54        0.38
  3                    OUTFALL      0.08     0.21     6.21     0  02:20        0.21
  4                    OUTFALL      0.03     0.15     7.15     0  02:21        0.15
  5                    OUTFALL      0.00     0.00     5.00     0  00:00        0.00
  JK-storage           STORAGE      3.56     5.80     6.60     0  02:03        5.80
  CC-storage           STORAGE      1.06     1.37     8.37     0  05:28        1.37
  XR-storage           STORAGE      7.63     7.72     5.72     0  01:05        7.72
  
  
  *******************
  Node Inflow Summary
  *******************
  
  -------------------------------------------------------------------------------------------------
                                  Maximum  Maximum                  Lateral       Total        Flow
                                  Lateral    Total  Time of Max      Inflow      Inflow     Balance
                                   Inflow   Inflow   Occurrence      Volume      Volume       Error
  Node                 Type           LPS      LPS  days hr:min    10^6 ltr    10^6 ltr     Percent
  -------------------------------------------------------------------------------------------------
  WS02001211           JUNCTION      7.35   376.36     0  02:50       0.207        4.87       0.267
  WS02001212           JUNCTION      0.00   369.36     0  02:51           0        4.86       0.122
  WS02001213           JUNCTION      0.00   367.19     0  02:51           0        4.85       0.319
  WS02003069           JUNCTION      0.32   861.09     0  02:52     0.00902        13.6       0.141
  WS02003072           JUNCTION      0.00   860.45     0  02:53           0        13.6       0.187
  WS02003073           JUNCTION      1.82   861.91     0  02:54      0.0514        13.6       0.197
  WS02003060           JUNCTION     16.53   861.09     0  02:52       0.466        13.6       0.136
  WS02003066           JUNCTION      0.00   591.95     0  02:09           0        8.34       0.054
  WS02003059           JUNCTION      0.00   366.97     0  02:52           0        4.84       0.560
  WS02003067           JUNCTION      0.00   591.88     0  02:09           0        8.35       0.112
  WS02004401           JUNCTION      0.00   594.66     0  02:07           0        8.59       0.253
  WS02004402           JUNCTION      0.00   593.76     0  02:07           0        8.57       0.239
  WS02004403           JUNCTION      0.00   594.12     0  02:07           0        8.55       0.217
  WS02004404           JUNCTION      0.16   593.42     0  02:07     0.00457        8.53       0.163
  WS02004406           JUNCTION      0.00   593.87     0  02:07           0         8.5       0.397
  WS02004409           JUNCTION      0.00   593.09     0  02:08           0        8.46       0.196
  WS02004410           JUNCTION      0.00   592.66     0  02:08           0        8.44       0.221
  WS02004411           JUNCTION      0.00   592.32     0  02:08           0        8.42       0.226
  WS02004412           JUNCTION      0.00   592.09     0  02:08           0         8.4       0.243
  WS02004413           JUNCTION      0.00   592.01     0  02:09           0        8.38       0.359
  WS02004405           JUNCTION      0.04   593.45     0  02:07     0.00107        8.52       0.244
  WS02006109           JUNCTION      1.23   587.96     0  02:22      0.0347        8.65       0.235
  WS02006110           JUNCTION      0.00   587.93     0  02:22           0        8.63       0.232
  WS02006111           JUNCTION      0.00   615.82     0  02:22           0         8.6       0.053
  WS02006112           JUNCTION     10.18   603.04     0  02:23      0.0577        8.66       0.347
  WS02006113           JUNCTION      0.00   588.47     0  02:22           0        8.61       0.114
  WS02006115           JUNCTION      0.00   613.87     0  02:20           0        8.63       0.237
  WS02006116           JUNCTION      0.00   596.31     0  02:23           0        8.61       0.225
  WS02006230           JUNCTION     10.28   399.74     0  04:52        0.29        6.91       0.196
  WS02006231           JUNCTION      0.00   390.93     0  04:51           0        6.63       0.170
  WS02006232           JUNCTION      0.00   391.09     0  04:51           0        6.65       0.241
  WS02006234           JUNCTION      0.00   393.59     0  04:51           0        6.66       0.121
  WS02006235           JUNCTION      0.00   393.01     0  04:51           0        6.71       0.166
  WS02006238           JUNCTION      0.00   343.84     0  06:10           0        4.96       0.158
  WS02006240           JUNCTION      0.00   338.01     0  06:10           0        4.94       0.240
  WS02006242           JUNCTION      0.00   335.03     0  06:10           0        4.94       0.299
  WS02006243           JUNCTION      0.00   334.89     0  05:41           0        4.93      -0.051
  WS02006245           JUNCTION      0.00   342.81     0  05:41           0        4.94       0.267
  WS02006247           JUNCTION      0.00   348.85     0  05:41           0        4.95       0.152
  WS02006248           JUNCTION      0.00   354.21     0  01:43           0        4.95       0.063
  WS02006249           JUNCTION      0.00   457.46     0  02:20           0        5.53       0.211
  WS02006239           JUNCTION      0.00   342.35     0  06:10           0        4.95       0.221
  WS02006251           JUNCTION      0.08   459.08     0  02:20     0.00217        5.57       0.156
  WS02006252           JUNCTION      0.00   400.00     0  02:20           0        5.21       0.009
  WS02006253           JUNCTION      1.44    57.92     0  02:08     0.00747       0.363       1.064
  WS02006256           JUNCTION      0.00   599.98     0  02:20           0        4.79       0.067
  WS02004138           JUNCTION      0.00   379.94     0  02:50           0        4.67       0.023
  WS02004407           JUNCTION      0.00   593.27     0  02:07           0        8.46       0.088
  WS02006228           JUNCTION      0.00   586.82     0  02:22           0        8.63       0.168
  WS02006229           JUNCTION      0.00   588.71     0  02:19           0        8.65       0.151
  WS02006280           JUNCTION      0.00   274.19     0  02:09           0        1.75       0.004
  WS02006284           JUNCTION      0.10   274.19     0  02:09      0.0027        1.75       0.059
  WS02006287           JUNCTION      0.00   274.08     0  02:09           0        1.75       0.041
  WSF200               JUNCTION      0.00   591.97     0  02:09           0        8.34       0.049
  HS02004901           JUNCTION     12.34    12.34     0  01:36      0.0695      0.0697       2.591
  HS02004881           JUNCTION      5.34    56.62     0  02:08      0.0303       0.326       0.103
  HS02004876           JUNCTION     10.11    51.23     0  02:08      0.0584       0.296       0.182
  HS02004870           JUNCTION     10.08    41.18     0  02:08      0.0575       0.238       0.045
  HS02004862           JUNCTION      9.99    31.21     0  02:08      0.0634        0.18       0.096
  HS02004856           JUNCTION      7.58    21.25     0  02:08      0.0432       0.118       1.231
  HS02004852           JUNCTION      0.00    13.78     0  02:09           0      0.0753       0.072
  HS02004848           JUNCTION     22.44    22.44     0  02:09       0.139       0.139       0.033
  HS02004842           JUNCTION      0.00     8.71     0  02:17           0      0.0763      20.532
  HS02004837           JUNCTION     23.78    32.32     0  02:08       0.279       0.343       0.237
  HS02004830           JUNCTION      0.15    32.46     0  02:09     0.00423       0.333       0.372
  HS02004824           JUNCTION     27.40    59.85     0  02:10       0.181       0.513       0.105
  HS02004817           JUNCTION      0.60    60.44     0  02:10      0.0169       0.529       3.252
  HS02004807           JUNCTION     18.56    78.63     0  02:09       0.106       0.618       0.705
  HS02004802           JUNCTION      0.00    78.69     0  02:10           0       0.615       0.647
  HS02004799           JUNCTION     14.98   164.66     0  02:07      0.0856       0.976       0.270
  HS02004792           JUNCTION     62.86   149.73     0  02:07       0.364       0.891       0.045
  HS02004788           JUNCTION     22.43    86.95     0  02:07       0.166       0.528       0.074
  HS02004785           JUNCTION      0.15    64.59     0  02:07     0.00423       0.363       0.135
  HS02004777           JUNCTION      0.03    64.48     0  02:07    0.000846       0.364       1.448
  HS02004770           JUNCTION     52.29    64.50     0  02:06       0.297       0.365       0.854
  HS02004480           JUNCTION      0.00   195.78     0  02:07           0        1.15       0.099
  HS02004479           JUNCTION      0.00    31.20     0  02:09           0       0.188       0.391
  HS02004478           JUNCTION      0.00   274.07     0  02:08           0        1.75       0.020
  YS02001745           JUNCTION    214.32   428.48     0  02:26        2.14        2.17       0.512
  YS02001748           JUNCTION      0.04   593.69     0  02:27     0.00127        2.16       1.047
  YS02001751           JUNCTION      0.01   311.85     0  02:24     0.00031        2.11       1.114
  YS02001754           JUNCTION      0.26   241.58     0  02:28     0.00733         2.1       1.184
  YS02001762           JUNCTION      0.00   260.82     0  02:35           0        1.92       1.103
  YS02001765           JUNCTION      0.00   259.31     0  02:35           0        1.92       1.271
  YS02001767           JUNCTION      0.54   258.38     0  02:45      0.0151        1.95       1.865
  YS02001770           JUNCTION    259.81   259.81     0  02:54        2.41        2.42       1.309
  YS02001774           JUNCTION      0.00   217.72     0  03:15           0       0.478       5.505
  YS02001779           JUNCTION      0.01   217.64     0  03:15    0.000141       0.446       3.574
  YS02001882           JUNCTION      0.00    18.42     0  02:09           0       0.016      15.059
  YS02001884           JUNCTION      0.00    26.91     0  02:08           0      0.0521      12.374
  YS02001759           JUNCTION    246.73   503.67     0  02:45        2.23        4.11       0.554
  YS02001887           JUNCTION    301.84   301.84     0  02:31        2.57         2.6       0.313
  YS02001890           JUNCTION      0.00   301.78     0  02:41           0        2.56       0.344
  YS02001898           JUNCTION      0.00   302.59     0  02:43           0        2.54       0.113
  YS02001901           JUNCTION      0.00   301.42     0  02:52           0        2.54       0.257
  YS02001904           JUNCTION      0.00   301.40     0  02:52           0        2.54       0.235
  YS02001907           JUNCTION      0.00   587.96     0  03:02           0        5.63       0.422
  YS02001910           JUNCTION      0.00   321.49     0  03:06           0         3.1       0.367
  YS02001915           JUNCTION    186.98   320.44     0  03:06         1.8         3.1       0.181
  YS02001918           JUNCTION      0.00   139.69     0  03:06           0         1.3       0.135
  YS02001619           JUNCTION    183.42   183.42     0  02:55        1.79        1.79       0.667
  YS02001629           JUNCTION      0.00   185.30     0  02:10           0        1.67       1.695
  YS02001641           JUNCTION      0.00   380.88     0  02:29           0        3.69       0.566
  YS02001644           JUNCTION    204.56   916.91     0  03:10        2.06        7.11       0.372
  YS02001652           JUNCTION      0.00   281.31     0  02:23           0        1.86       1.238
  YS02001655           JUNCTION      0.15   417.73     0  02:14     0.00434        1.89       1.344
  YS02001920           JUNCTION      2.87   128.73     0  03:05      0.0809        1.31       0.214
  YS02001923           JUNCTION      0.04   109.28     0  03:03     0.00106        1.23       0.049
  YS02001926           JUNCTION      0.05   103.79     0  03:01     0.00147        1.23       0.252
  YS02001929           JUNCTION    100.40   100.40     0  03:01        1.23        1.23       0.039
  YS02001658           JUNCTION      0.00   616.85     0  02:23           0        1.92       1.167
  YS02001661           JUNCTION      0.00   624.38     0  02:44           0        2.53       0.038
  YS02001664           JUNCTION    219.77   373.83     0  02:44        1.91        2.52       0.262
  YS02001622           JUNCTION      0.00   183.69     0  02:55           0        1.78       1.797
  YS02001633           JUNCTION    208.70   380.97     0  02:24        2.13        3.75       0.860
  YS02001649           JUNCTION      0.00   792.05     0  02:40           0        4.91       0.749
  YS02001757           JUNCTION      0.00  1470.74     0  02:40           0        9.65       0.965
  YS02001895           JUNCTION      0.00   302.61     0  02:41           0        2.55       0.189
  YS02001625           JUNCTION      0.00   185.14     0  02:10           0        1.74       2.276
  YS02163301           JUNCTION      0.00   204.93     0  02:22           0        1.65       1.459
  YS02163601           JUNCTION      0.11   381.14     0  02:24      0.0031        3.71       0.814
  YS02164001           JUNCTION      0.00   381.05     0  02:24           0        3.69       0.539
  YS02001647           JUNCTION      0.00   574.62     0  02:41           0        3.84       0.736
  YSB1154              JUNCTION     18.00    18.00     0  02:07       0.104       0.105       1.400
  YSB6556              JUNCTION      0.00    17.99     0  02:06           0       0.105       1.199
  YSB1174              JUNCTION     13.79    13.79     0  01:35      0.0753      0.0758       1.722
  YSB1171              JUNCTION      0.00    31.24     0  02:07           0       0.187       3.510
  YS02006553           JUNCTION      0.00   588.00     0  03:02           0        5.62       0.272
  YS02006561           JUNCTION      0.00   841.82     0  02:58           0        7.92       0.007
  YS02006556           JUNCTION      0.00   587.68     0  03:02           0        5.62       0.197
  YS02006558           JUNCTION    265.84   842.15     0  02:56        2.36        7.95       0.065
  YS02001783           JUNCTION      0.00   841.34     0  02:57           0        7.92       0.026
  YS02001784           JUNCTION      1.06   842.36     0  02:57      0.0299        7.95       0.043
  YS02001786           JUNCTION      0.06   842.34     0  02:57     0.00159        7.95       0.039
  YS02001788           JUNCTION      0.07   842.39     0  02:57       0.002        7.94       0.023
  YS02001790           JUNCTION      0.15   842.59     0  02:57     0.00437        7.95       0.028
  YS02001791           JUNCTION      0.00   842.57     0  02:57           0        7.94       0.016
  YS02001793           JUNCTION      0.00   842.67     0  02:57           0        7.95      -0.005
  WS02004139           JUNCTION      0.32   378.98     0  04:40     0.00905        4.68       0.343
  WSC                  OUTFALL       0.00   861.28     0  02:54           0        13.6       0.000
  3                    OUTFALL       0.00   525.10     0  02:20           0           3       0.000
  4                    OUTFALL       0.00   208.97     0  02:21           0       0.565       0.000
  5                    OUTFALL       0.00     0.00     0  00:00           0           0       0.000 ltr
  JK-storage           STORAGE       0.00   842.64     0  02:57           0         8.1      -2.863
  CC-storage           STORAGE       0.00  1470.60     0  02:40           0        8.91       0.325
  XR-storage           STORAGE     549.18   549.18     0  02:55        9.26        9.86      -0.008
  
  
  **********************
  Node Surcharge Summary
  **********************
  
  Surcharging occurs when water rises above the top of the highest conduit.
  ---------------------------------------------------------------------
                                               Max. Height   Min. Depth
                                   Hours       Above Crown    Below Rim
  Node                 Type      Surcharged         Meters       Meters
  ---------------------------------------------------------------------
  WS02004404           JUNCTION        0.11          0.002        2.778
  WS02006109           JUNCTION        2.61          0.212        1.608
  WS02006110           JUNCTION        0.91          0.049        1.801
  WS02006112           JUNCTION        1.16          0.187        1.493
  WS02006230           JUNCTION        0.05          0.014        1.556
  WS02006231           JUNCTION        0.40          0.085        1.445
  WS02006232           JUNCTION        2.75          0.209        1.271
  WS02006234           JUNCTION        0.63          0.144        1.096
  WS02006235           JUNCTION        1.45          0.176        1.114
  WS02006238           JUNCTION        1.89          0.202        1.228
  WS02006240           JUNCTION        0.46          0.117        1.273
  WS02006242           JUNCTION        1.38          0.152        0.668
  WS02006243           JUNCTION        0.19          0.055        0.715
  WS02006245           JUNCTION        0.01          0.003        0.847
  WS02006247           JUNCTION        0.01          0.111        0.649
  WS02006239           JUNCTION        0.91          0.139        1.151
  WS02006252           JUNCTION        2.47          0.193        0.907
  WS02006228           JUNCTION        2.46          0.257        1.943
  YS02001748           JUNCTION        5.22          1.142        0.048
  YS02001751           JUNCTION        5.47          1.071        0.129
  YS02001754           JUNCTION        5.71          0.967        0.183
  YS02001762           JUNCTION        5.95          1.031        0.119
  YS02001765           JUNCTION        5.94          0.973        0.127
  YS02001767           JUNCTION        5.92          0.927        0.103
  YS02001770           JUNCTION        5.82          0.877        0.043
  YS02001774           JUNCTION        5.95          0.979        0.071
  YS02001779           JUNCTION        5.68          0.680        0.000
  YS02001882           JUNCTION        0.49          0.178        0.652
  YS02001884           JUNCTION        0.56          0.219        0.651
  YS02001759           JUNCTION        5.98          1.067        0.143
  YS02001887           JUNCTION        0.71          0.315        0.635
  YS02001890           JUNCTION        0.76          0.342        0.418
  YS02001898           JUNCTION        0.37          0.115        0.625
  YS02001901           JUNCTION        0.65          0.274        0.596
  YS02001904           JUNCTION        0.61          0.242        0.608
  YS02001907           JUNCTION        1.45          0.577        0.373
  YS02001910           JUNCTION        0.83          0.375        0.725
  YS02001915           JUNCTION        0.45          0.160        0.840
  YS02001619           JUNCTION        5.50          0.610        0.000
  YS02001629           JUNCTION        5.52          0.470        0.000
  YS02001641           JUNCTION        5.94          0.973        0.127
  YS02001644           JUNCTION        5.95          0.920        0.000
  YS02001652           JUNCTION        5.72          1.114        0.016
  YS02001655           JUNCTION        5.53          1.200        0.000
  YS02001658           JUNCTION        5.25          1.300        0.000
  YS02001661           JUNCTION        0.20          1.219        0.171
  YS02001622           JUNCTION        5.57          0.620        0.000
  YS02001633           JUNCTION        5.93          0.974        0.086
  YS02001649           JUNCTION        5.96          1.050        0.000
  YS02001757           JUNCTION        6.04          1.169        0.041
  YS02001895           JUNCTION        0.41          0.138        0.612
  YS02001625           JUNCTION        5.73          0.780        0.000
  YS02163301           JUNCTION        5.91          0.933        0.097
  YS02163601           JUNCTION        5.96          1.043        0.037
  YS02164001           JUNCTION        5.94          0.979        0.121
  YS02001647           JUNCTION        5.73          0.812        0.088
  YS02006553           JUNCTION        1.53          0.582        0.608
  YS02006556           JUNCTION        1.13          0.492        0.858
  YS02006558           JUNCTION        1.07          0.470        0.930
  YS02001783           JUNCTION        1.41          0.618        0.982
  YS02001784           JUNCTION        1.48          0.498        0.992
  YS02001786           JUNCTION        1.41          0.512        0.918
  YS02001788           JUNCTION        1.39          0.413        1.067
  YS02001790           JUNCTION        2.70          1.157        0.000
  YS02001791           JUNCTION        2.74          0.813        1.107
  YS02001793           JUNCTION        2.89          0.911        1.689
  
  
  *********************
  Node Flooding Summary
  *********************
  
  Flooding refers to all water that overflows a node, whether it ponds or not.
  --------------------------------------------------------------------------
                                                             Total   Maximum
                                 Maximum   Time of Max       Flood    Ponded
                        Hours       Rate    Occurrence      Volume     Depth
  Node                 Flooded       LPS   days hr:min    10^6 ltr    Meters
  --------------------------------------------------------------------------
  YS02001779              2.05    217.57      0  03:15       0.424     0.000
  YS02001619              0.01     39.66      0  02:24       0.000     0.000
  YS02001629              0.01     37.21      0  02:25       0.001     0.000
  YS02001644              3.33    916.83      0  03:10       4.611     0.000
  YS02001655              0.01    143.07      0  02:14       0.000     0.000
  YS02001658              0.01    186.07      0  02:23       0.000     0.000
  YS02001622              0.01     31.12      0  02:25       0.000     0.000
  YS02001649              0.06     41.01      0  02:48       0.003     0.000
  YS02001625              0.57     40.67      0  02:28       0.043     0.000
  YS02001790              0.01    196.02      0  02:02       0.000     0.000
  JK-storage              2.61    794.99      0  03:10       3.546     0.000
  XR-storage              6.51    421.48      0  02:30       4.265     0.000
  
  
  **********************
  Storage Volume Summary
  **********************
  
  --------------------------------------------------------------------------------------------------
                         Average     Avg  Evap Exfil       Maximum     Max    Time of Max    Maximum
                          Volume    Pcnt  Pcnt  Pcnt        Volume    Pcnt     Occurrence    Outflow
  Storage Unit           1000 m3    Full  Loss  Loss       1000 m3    Full    days hr:min        LPS
  --------------------------------------------------------------------------------------------------
  JK-storage               0.179      61     0     0         0.291     100       0  02:03     599.98
  CC-storage               2.963      19     0     0         3.831      24       0  05:28     400.00
  XR-storage               0.915      99     0     0         0.926     100       0  01:05     379.94
  
  
  ***********************
  Outfall Loading Summary
  ***********************
  
  -----------------------------------------------------------
                         Flow       Avg       Max       Total
                         Freq      Flow      Flow      Volume
  Outfall Node           Pcnt       LPS       LPS    10^6 ltr
  -----------------------------------------------------------
  WSC                   99.99    548.52    861.28      13.583
  3                     74.38    185.97    525.10       3.002
  4                     39.65     61.14    208.97       0.565
  5                      0.00      0.00      0.00       0.000
  -----------------------------------------------------------
  System                53.51    795.63   1452.34      17.150
  
  
  ********************
  Link Flow Summary
  ********************
  
  -----------------------------------------------------------------------------
                                 Maximum  Time of Max   Maximum    Max/    Max/
                                  |Flow|   Occurrence   |Veloc|    Full    Full
  Link                 Type          LPS  days hr:min     m/sec    Flow   Depth
  -----------------------------------------------------------------------------
  WS02003066WSF200     CONDUIT    591.97     0  02:09      2.86    0.10    0.24
  WS02006287WS02006284 CONDUIT    274.09     0  02:09      1.78    0.13    0.25
  WS02006284WS02006280 CONDUIT    274.19     0  02:09      2.02    0.11    0.23
  WS02006280WS02006229 CONDUIT    274.19     0  02:09      3.26    0.06    0.16
  WS02006229WS02006228 CONDUIT    586.82     0  02:22      1.17    1.94    1.00
  WS02006256WS02006235 CONDUIT    166.25     0  00:01      2.58    1.76    1.00
  WS02006253WS02006251 CONDUIT     74.72     0  02:09      0.52    0.22    0.99
  WS02006252WS02006251 CONDUIT    400.58     0  03:58      3.19    1.47    1.00
  WS02006251WS02006249 CONDUIT    457.46     0  02:20      1.21    1.32    0.96
  WS02006249WS02006248 CONDUIT    354.21     0  01:43      1.24    1.94    0.91
  WS02006248WS02006247 CONDUIT    348.85     0  05:41      1.20    0.76    0.96
  WS02006247WS02006245 CONDUIT    342.81     0  05:41      1.17    2.72    1.00
  WS02006245WS02006243 CONDUIT    334.89     0  05:41      1.21    0.99    1.00
  WS02006243WS02006242 CONDUIT    335.03     0  06:10      1.03    0.72    1.00
  WS02006242WS02006240 CONDUIT    338.01     0  06:10      0.90    1.34    1.00
  WS02006240WS02006239 CONDUIT    342.35     0  06:10      0.94    1.08    1.00
  WS02006239WS02006238 CONDUIT    343.84     0  06:10      0.91    1.10    1.00
  WS02006238WS02006235 CONDUIT    343.70     0  06:10      1.25    0.77    1.00
  WS02006235WS02006234 CONDUIT    393.59     0  04:51      1.04    4.15    1.00
  WS02006234WS02006232 CONDUIT    391.09     0  04:51      1.13    0.79    1.00
  WS02006232WS02006231 CONDUIT    390.93     0  04:51      1.06    0.82    1.00
  WS02006231WS02006230 CONDUIT    389.46     0  04:52      1.37    5.91    1.00
  WS02006230WS02006229 CONDUIT    399.14     0  04:52      1.04    8.88    1.00
  WS02006228WS02006109 CONDUIT    586.73     0  02:22      1.17    2.56    1.00
  WS02006116WS02004401 CONDUIT    594.66     0  02:07      0.81    0.82    0.89
  WS02006115WS02006116 CONDUIT    596.31     0  02:23      0.91    0.77    0.81
  WS02006113WS02006111 CONDUIT    615.82     0  02:22      2.54    0.74    0.49
  WS02006112WS02006115 CONDUIT    613.87     0  02:20      0.83    0.36    0.90
  WS02006111WS02006112 CONDUIT    594.53     0  02:23      1.63    0.28    0.68
  WS02006110WS02006113 CONDUIT    588.47     0  02:22      1.37    0.54    0.80
  WS02006109WS02006110 CONDUIT    587.93     0  02:22      1.17    1.13    1.00
  WS02004411WS02004412 CONDUIT    592.09     0  02:08      0.97    0.84    0.72
  WS02004401WS02004402 CONDUIT    593.76     0  02:07      0.79    0.71    0.91
  WS02004413WS02003067 CONDUIT    591.88     0  02:09      1.17    0.25    0.61
  WS02004412WS02004413 CONDUIT    592.01     0  02:09      0.87    0.40    0.80
  WS02004410WS02004411 CONDUIT    592.32     0  02:08      0.98    0.81    0.72
  WS02004409WS02004410 CONDUIT    592.66     0  02:08      1.00    0.77    0.71
  WS02004407WS02004409 CONDUIT    593.09     0  02:08      1.52    0.21    0.51
  WS02004406WS02004407 CONDUIT    593.27     0  02:07      1.10    0.27    0.65
  WS02004405WS02004406 CONDUIT    593.87     0  02:07      0.76    1.17    0.99
  WS02004404WS02004405 CONDUIT    593.41     0  02:07      0.84    5.81    1.00
  WS02004403WS02004404 CONDUIT    593.26     0  02:07      0.76    0.43    0.97
  WS02004402WS02004403 CONDUIT    594.12     0  02:07      0.78    0.85    0.93
  WS02004139WS02001211 CONDUIT    369.01     0  02:50      0.69    0.47    0.58
  WS02004138WS02004139 CONDUIT    378.65     0  04:40      2.94    0.08    0.43
  WS02003067WS02003066 CONDUIT    591.95     0  02:09      1.27    0.19    0.43
  WS02001213WS02003059 CONDUIT    366.97     0  02:52      0.65    0.61    0.75
  WS02001212WS02001213 CONDUIT    367.19     0  02:51      1.22    0.57    0.45
  WS02001211WS02001212 CONDUIT    369.36     0  02:51      0.75    0.28    0.63
  WS02003072WS02003073 CONDUIT    860.09     0  02:54      1.67    1.86    0.46
  WS02003069WS02003072 CONDUIT    860.45     0  02:53      1.58    0.41    0.49
  WS02003060WS02003069 CONDUIT    860.77     0  02:52      1.83    0.34    0.43
  WS02003059WS02003060 CONDUIT    367.25     0  02:52      0.76    0.24    0.64
  HS02004901HS02004770 CONDUIT     12.22     0  02:07      0.05    0.05    0.35
  HS02004876HS02004881 CONDUIT     51.32     0  02:08      0.76    0.55    0.10
  HS02004870HS02004876 CONDUIT     41.17     0  02:09      0.52    0.03    0.11
  HS02004842HS02004848 CONDUIT      8.71     0  02:17      0.04    0.01    0.29
  HS02004837HS02004842 CONDUIT      8.85     0  02:14      0.41    0.01    0.30
  HS02004830HS02004837 CONDUIT     32.31     0  02:09      0.50    0.03    0.09
  HS02004824HS02004830 CONDUIT     32.45     0  02:09      0.53    0.04    0.09
  HS02004817HS02004824 CONDUIT     59.84     0  02:10      0.20    0.03    0.43
  HS02004770HS02004777 CONDUIT     64.45     0  02:07      0.26    0.12    0.36
  HS02004799HS02004480 CONDUIT    164.63     0  02:07      0.67    0.21    0.35
  HS02004792HS02004799 CONDUIT    149.69     0  02:07      0.76    0.09    0.28
  HS02004788HS02004792 CONDUIT     86.94     0  02:08      0.90    0.06    0.14
  HS02004785HS02004788 CONDUIT     64.57     0  02:08      0.57    0.49    0.16
  HS02004777HS02004785 CONDUIT     64.44     0  02:07      0.31    0.08    0.29
  HS02004480HS02004478 CONDUIT    195.75     0  02:08      1.06    0.82    0.26
  HS02004479HS02004480 CONDUIT     31.31     0  02:10      0.28    0.03    0.34
  HS02004862HS02004870 CONDUIT     31.19     0  02:09      0.56    0.03    0.08
  HS02004848HS02004852 CONDUIT     13.78     0  02:09      0.38    0.02    0.05
  HS02004856HS02004862 CONDUIT     21.24     0  02:09      0.41    0.02    0.07
  HS02004852HS02004856 CONDUIT     13.76     0  02:09      0.18    0.02    0.11
  HS02004802HS02004478 CONDUIT     78.88     0  02:11      0.38    0.07    0.29
  HS02004478WS02006287 CONDUIT    274.08     0  02:09      1.48    0.08    0.21
  HS02004817HS02004807 CONDUIT     60.62     0  02:11      0.15    0.04    0.56
  HS02004807HS02004802 CONDUIT     78.69     0  02:10      0.32    0.15    0.35
  YS02001759YS02001757 CONDUIT    503.97     0  02:45      0.64    0.36    1.00
  YS02001762YS02001759 CONDUIT    262.19     0  02:35      0.33    0.30    1.00
  YS02001765YS02001762 CONDUIT    260.82     0  02:35      0.33    0.24    1.00
  YS02001770YS02001767 CONDUIT    257.85     0  02:45      0.38    1.02    1.00
  YS02001774YS02001770 CONDUIT    217.72     0  03:15      0.28    0.14    1.00
  YS02001779YS02001774 CONDUIT    217.63     0  03:15      0.28    0.11    1.00
  YS02001649YS02001757 CONDUIT    792.39     0  02:40      1.01    0.48    1.00
  YS02001767YS02001765 CONDUIT    259.31     0  02:35      0.35    0.33    1.00
  YS02006561YS02001783 CONDUIT    841.34     0  02:57      2.04    0.44    1.00
  YS02001783YS02001784 CONDUIT    841.30     0  02:57      1.67    1.16    1.00
  YS02001784YS02001785 CONDUIT    842.28     0  02:57      1.68    1.96    1.00
  YS02001788YS02001790 CONDUIT    842.44     0  02:57      2.10    0.62    1.00
  YS02001790YS02001791 CONDUIT    842.57     0  02:57      2.48    0.92    1.00
  YS02001791YS02001793 CONDUIT    842.67     0  02:57      4.95    0.36    1.00
  YS02001910YS02001907 CONDUIT    321.50     0  03:06      0.49    0.18    1.00
  YS02001786YS02001788 CONDUIT    842.32     0  02:57      2.03    1.62    1.00
  YS02001915YS02001910 CONDUIT    321.49     0  03:06      0.56    0.16    1.00
  YS02001918YS02001915 CONDUIT    149.93     0  03:06      0.44    0.08    0.91
  YS02001923YS02001920 CONDUIT    125.86     0  03:05      0.66    0.06    0.74
  YS02001926YS02001923 CONDUIT    109.24     0  03:03      0.76    0.16    0.42
  YS02001929YS02001926 CONDUIT    103.74     0  03:01      0.81    0.05    0.31
  YS02001920YS02001918 CONDUIT    139.69     0  03:06      0.65    0.14    0.84
  YS02001629YS02163301 CONDUIT    204.93     0  02:22      0.26    0.25    1.00
  YS02001619YS02001622 CONDUIT    183.69     0  02:55      0.67    0.27    1.00
  YS02001622YS02001625 CONDUIT    185.14     0  02:10      0.32    0.10    1.00
  YS02001625YS02001629 CONDUIT    185.30     0  02:10      0.27    0.09    1.00
  YS02163301YS02001633 CONDUIT    204.74     0  02:22      0.26    0.19    1.00
  YS02163601YS02164001 CONDUIT    381.05     0  02:24      0.49    0.34    1.00
  YS02164001YS02001641 CONDUIT    380.88     0  02:29      0.48    0.52    1.00
  YS02001641YS02001644 CONDUIT    380.96     0  02:24      0.49    1.23    1.00
  YS02001647YS02001649 CONDUIT    575.14     0  02:41      0.73    0.30    1.00
  YS02006553YS02006556 CONDUIT    587.68     0  03:02      0.75    0.50    1.00
  YS02006556YS02006558 CONDUIT    588.04     0  03:02      0.75    0.46    1.00
  YSB6556YSB1171       CONDUIT     18.03     0  02:09      0.07    0.02    0.61
  YS02001907YS02006553 CONDUIT    588.00     0  03:02      0.65    0.69    1.00
  YS02006558YS02006561 CONDUIT    841.82     0  02:58      3.18    1.86    1.00
  YS02001633YS02163601 CONDUIT    381.03     0  02:24      0.49    0.40    1.00
  YS02001644YS02001647 CONDUIT    574.62     0  02:41      0.73    0.34    1.00
  YS02001745YS02001748 CONDUIT    593.64     0  02:27      1.53    0.23    0.93
  YS02001748YS02001751 CONDUIT    311.84     0  02:24      1.14    0.16    1.00
  YS02001751YS02001754 CONDUIT    241.32     0  02:28      0.97    0.12    1.00
  YS02001754YS02001757 CONDUIT    240.39     0  02:29      0.33    0.10    1.00
  YS02001882YS02001884 CONDUIT     18.42     0  02:09      0.12    0.02    1.00
  YS02001884YS02001887 CONDUIT     26.91     0  02:08      0.09    0.04    1.00
  YS02001890YS02001895 CONDUIT    302.61     0  02:41      0.45    0.14    1.00
  YS02001895YS02001898 CONDUIT    302.59     0  02:43      0.56    0.53    1.00
  YS02001898YS02001901 CONDUIT    301.42     0  02:52      0.48    0.19    1.00
  YS02001901YS02001904 CONDUIT    301.40     0  02:52      0.45    0.47    1.00
  YS02001904YS02001907 CONDUIT    301.52     0  02:52      0.38    0.11    1.00
  YS02001887YS02001890 CONDUIT    301.78     0  02:41      0.41    0.52    1.00
  YS02001652YS02001649 CONDUIT    281.29     0  02:23      0.58    0.14    1.00
  YS02001655YS02001652 CONDUIT    281.31     0  02:23      1.05    0.14    1.00
  YS02001658YS02001655 CONDUIT    417.58     0  02:14      1.31    0.18    1.00
  YS02001661YS02001658 CONDUIT    616.85     0  02:23      1.61    0.24    1.00
  YS02001664YS02001661 CONDUIT    624.38     0  02:44      1.55    0.20    0.71
  YSB1154YSB6556       CONDUIT     17.99     0  02:06      0.16    0.03    0.50
  YSB1174YSB1171       CONDUIT     13.76     0  01:36      0.06    0.02    0.62
  YSB1171HS02004479    CONDUIT     31.20     0  02:09      0.54    0.02    0.48
  HS02004881HS02006253 CONDUIT     56.62     0  02:08      1.92    0.01    0.29
  YS02001793JiankangQianchi CONDUIT    842.64     0  02:57     12.71    0.07    1.00
  YS02001757CaochengTiaoxuchi CONDUIT   1470.60     0  02:40      2.38    0.65    1.00
  WSF200WS02003060     CONDUIT    591.82     0  02:09      1.95    0.13    0.33
  1                    CONDUIT    861.28     0  02:54      3.20    0.30    0.38
  2                    CONDUIT    208.97     0  02:21      5.91    0.50    0.50
  3                    CONDUIT    525.10     0  02:20      9.88    0.84    0.71
  4                    CONDUIT      0.00     0  00:00      0.00    0.00    0.00
  CC-Pump-1            PUMP       200.00     0  02:20              1.00
  CC-Pump-2            PUMP       200.00     0  01:42              1.00
  JK-Pump-1            PUMP       300.00     0  00:00              1.00
  JK-Pump-2            PUMP       300.00     0  02:10              1.00
  XR-Pump-1            PUMP        95.00     0  00:00              1.00
  XR-Pump-2            PUMP        95.00     0  03:20              1.00
  XR-Pump-3            PUMP        95.00     0  00:00              1.00
  XR-Pump-4            PUMP        95.00     0  01:20              1.00
  
  
  ***************************
  Flow Classification Summary
  ***************************
  
  -------------------------------------------------------------------------------------
                      Adjusted    ---------- Fraction of Time in Flow Class ---------- 
                       /Actual         Up    Down  Sub   Sup   Up    Down  Norm  Inlet 
  Conduit               Length    Dry  Dry   Dry   Crit  Crit  Crit  Crit  Ltd   Ctrl  
  -------------------------------------------------------------------------------------
  WS02003066WSF200        1.00   0.06  0.00  0.00  0.00  0.94  0.00  0.00  0.62  0.00
  WS02006287WS02006284    1.00   0.04  0.01  0.00  0.58  0.37  0.00  0.00  0.68  0.00
  WS02006284WS02006280    1.00   0.04  0.00  0.00  0.00  0.00  0.00  0.96  0.00  0.00
  WS02006280WS02006229    1.00   0.04  0.00  0.00  0.00  0.00  0.00  0.96  0.00  0.00
  WS02006229WS02006228    1.00   0.00  0.00  0.00  0.99  0.00  0.00  0.01  0.00  0.00
  WS02006256WS02006235    1.00   0.00  0.00  0.00  1.00  0.00  0.00  0.00  0.00  0.00
  WS02006253WS02006251    1.00   0.03  0.01  0.00  0.96  0.00  0.00  0.00  0.00  0.00
  WS02006252WS02006251    1.00   0.06  0.00  0.00  0.00  0.00  0.94  0.00  0.00  0.00
  WS02006251WS02006249    1.00   0.00  0.00  0.00  1.00  0.00  0.00  0.00  0.20  0.00
  WS02006249WS02006248    1.00   0.00  0.02  0.00  0.92  0.00  0.06  0.00  0.00  0.00
  WS02006248WS02006247    1.00   0.02  0.00  0.00  0.98  0.00  0.00  0.00  0.09  0.00
  WS02006247WS02006245    1.00   0.02  0.00  0.00  0.98  0.00  0.00  0.00  0.00  0.00
  WS02006245WS02006243    1.00   0.01  0.00  0.00  0.95  0.00  0.00  0.03  0.01  0.00
  WS02006243WS02006242    1.00   0.01  0.00  0.00  0.99  0.00  0.00  0.00  0.18  0.00
  WS02006242WS02006240    1.00   0.00  0.00  0.00  1.00  0.00  0.00  0.00  0.00  0.00
  WS02006240WS02006239    1.00   0.00  0.00  0.00  0.97  0.00  0.00  0.03  0.01  0.00
  WS02006239WS02006238    1.00   0.00  0.00  0.00  1.00  0.00  0.00  0.00  0.00  0.00
  WS02006238WS02006235    1.00   0.00  0.00  0.00  1.00  0.00  0.00  0.00  0.00  0.00
  WS02006235WS02006234    1.00   0.00  0.00  0.00  0.97  0.00  0.03  0.00  0.00  0.00
  WS02006234WS02006232    1.00   0.00  0.00  0.00  1.00  0.00  0.00  0.00  0.01  0.00
  WS02006232WS02006231    1.00   0.00  0.00  0.00  0.99  0.00  0.00  0.00  0.00  0.00
  WS02006231WS02006230    1.00   0.00  0.00  0.00  0.67  0.00  0.33  0.00  0.00  0.00
  WS02006230WS02006229    1.00   0.00  0.00  0.00  0.99  0.00  0.00  0.01  0.01  0.00
  WS02006228WS02006109    1.00   0.00  0.00  0.00  1.00  0.00  0.00  0.00  0.00  0.00
  WS02006116WS02004401    1.00   0.02  0.00  0.00  0.98  0.00  0.00  0.00  0.00  0.00
  WS02006115WS02006116    1.00   0.02  0.00  0.00  0.97  0.00  0.00  0.01  0.00  0.00
  WS02006113WS02006111    1.00   0.02  0.00  0.00  0.00  0.98  0.00  0.00  0.12  0.00
  WS02006112WS02006115    1.00   0.02  0.00  0.00  0.98  0.00  0.00  0.00  0.00  0.00
  WS02006111WS02006112    1.00   0.02  0.00  0.00  0.98  0.00  0.00  0.00  0.97  0.00
  WS02006110WS02006113    1.00   0.01  0.01  0.00  0.98  0.00  0.00  0.00  0.00  0.00
  WS02006109WS02006110    1.00   0.00  0.01  0.00  0.98  0.00  0.01  0.00  0.00  0.00
  WS02004411WS02004412    1.00   0.04  0.00  0.00  0.96  0.00  0.00  0.00  0.00  0.00
  WS02004401WS02004402    1.00   0.02  0.00  0.00  0.98  0.00  0.00  0.00  0.00  0.00
  WS02004413WS02003067    1.00   0.04  0.01  0.00  0.00  0.00  0.95  0.00  0.00  0.00
  WS02004412WS02004413    1.00   0.04  0.00  0.00  0.96  0.00  0.00  0.00  0.03  0.00
  WS02004410WS02004411    1.00   0.04  0.00  0.00  0.96  0.00  0.00  0.00  0.03  0.00
  WS02004409WS02004410    1.00   0.04  0.00  0.00  0.96  0.00  0.00  0.00  0.02  0.00
  WS02004407WS02004409    1.00   0.04  0.00  0.00  0.96  0.00  0.00  0.00  0.89  0.00
  WS02004406WS02004407    1.00   0.00  0.03  0.00  0.96  0.00  0.00  0.00  0.00  0.00
  WS02004405WS02004406    1.00   0.00  0.00  0.00  1.00  0.00  0.00  0.00  0.01  0.00
  WS02004404WS02004405    1.00   0.00  0.00  0.00  1.00  0.00  0.00  0.00  0.00  0.00
  WS02004403WS02004404    1.00   0.00  0.02  0.00  0.98  0.00  0.00  0.00  0.01  0.00
  WS02004402WS02004403    1.00   0.02  0.00  0.00  0.98  0.00  0.00  0.00  0.00  0.00
  WS02004139WS02001211    1.00   0.00  0.00  0.00  1.00  0.00  0.00  0.00  0.00  0.00
  WS02004138WS02004139    1.00   0.00  0.00  0.00  0.99  0.01  0.00  0.00  1.00  0.00
  WS02003067WS02003066    1.00   0.05  0.01  0.00  0.94  0.00  0.00  0.00  0.00  0.00
  WS02001213WS02003059    1.00   0.00  0.00  0.00  0.99  0.00  0.00  0.00  0.00  0.00
  WS02001212WS02001213    1.00   0.00  0.00  0.00  0.80  0.00  0.20  0.00  0.00  0.00
  WS02001211WS02001212    1.00   0.00  0.00  0.00  1.00  0.00  0.00  0.00  0.00  0.00
  WS02003072WS02003073    1.00   0.00  0.00  0.00  0.00  0.00  0.00  1.00  0.00  0.00
  WS02003069WS02003072    1.00   0.00  0.00  0.00  0.99  0.01  0.00  0.00  0.26  0.00
  WS02003060WS02003069    1.00   0.00  0.00  0.00  0.98  0.02  0.00  0.00  0.17  0.00
  WS02003059WS02003060    1.00   0.00  0.00  0.00  1.00  0.00  0.00  0.00  0.01  0.00
  HS02004901HS02004770    1.00   0.04  0.00  0.00  0.96  0.00  0.00  0.00  0.00  0.00
  HS02004876HS02004881    1.00   0.02  0.00  0.00  0.98  0.00  0.00  0.00  0.00  0.00
  HS02004870HS02004876    1.00   0.01  0.00  0.00  0.99  0.00  0.00  0.00  0.95  0.00
  HS02004842HS02004848    1.00   0.00  0.04  0.00  0.96  0.00  0.00  0.00  0.58  0.00
  HS02004837HS02004842    1.00   0.00  0.00  0.00  0.99  0.01  0.00  0.00  0.11  0.00
  HS02004830HS02004837    1.00   0.00  0.00  0.00  1.00  0.00  0.00  0.00  0.99  0.00
  HS02004824HS02004830    1.00   0.00  0.00  0.00  1.00  0.00  0.00  0.00  0.00  0.00
  HS02004817HS02004824    1.00   0.00  0.00  0.00  1.00  0.00  0.00  0.00  1.00  0.00
  HS02004770HS02004777    1.00   0.00  0.04  0.00  0.96  0.00  0.00  0.00  0.03  0.00
  HS02004799HS02004480    1.00   0.00  0.02  0.00  0.95  0.00  0.02  0.00  0.00  0.00
  HS02004792HS02004799    1.00   0.00  0.00  0.00  0.99  0.01  0.00  0.00  0.98  0.00
  HS02004788HS02004792    1.00   0.00  0.00  0.00  0.99  0.01  0.00  0.00  0.98  0.00
  HS02004785HS02004788    1.00   0.00  0.00  0.00  1.00  0.00  0.00  0.00  0.00  0.00
  HS02004777HS02004785    1.00   0.00  0.00  0.00  1.00  0.00  0.00  0.00  0.12  0.00
  HS02004480HS02004478    1.00   0.04  0.00  0.00  0.63  0.00  0.00  0.32  0.00  0.00
  HS02004479HS02004480    1.00   0.03  0.00  0.00  0.97  0.00  0.00  0.00  0.12  0.00
  HS02004862HS02004870    1.00   0.00  0.00  0.00  1.00  0.00  0.00  0.00  0.04  0.00
  HS02004848HS02004852    1.00   0.04  0.00  0.00  0.96  0.00  0.00  0.00  0.76  0.00
  HS02004856HS02004862    1.00   0.00  0.05  0.00  0.95  0.00  0.00  0.00  0.83  0.00
  HS02004852HS02004856    1.00   0.04  0.00  0.00  0.96  0.00  0.00  0.00  0.86  0.00
  HS02004802HS02004478    1.00   0.04  0.00  0.00  0.96  0.00  0.00  0.00  0.03  0.00
  HS02004478WS02006287    1.00   0.05  0.00  0.00  0.71  0.25  0.00  0.00  0.65  0.00
  HS02004817HS02004807    1.00   0.00  0.04  0.00  0.96  0.00  0.00  0.00  0.01  0.00
  HS02004807HS02004802    1.00   0.04  0.00  0.00  0.96  0.00  0.00  0.00  0.00  0.00
  YS02001759YS02001757    1.00   0.00  0.00  0.00  1.00  0.00  0.00  0.00  0.16  0.00
  YS02001762YS02001759    1.00   0.00  0.00  0.00  1.00  0.00  0.00  0.00  0.03  0.00
  YS02001765YS02001762    1.00   0.00  0.00  0.00  1.00  0.00  0.00  0.00  0.14  0.00
  YS02001770YS02001767    1.00   0.00  0.00  0.00  1.00  0.00  0.00  0.00  0.00  0.00
  YS02001774YS02001770    1.00   0.00  0.04  0.00  0.96  0.00  0.00  0.00  0.03  0.00
  YS02001779YS02001774    1.00   0.00  0.00  0.00  1.00  0.00  0.00  0.00  0.18  0.00
  YS02001649YS02001757    1.00   0.00  0.00  0.00  1.00  0.00  0.00  0.00  0.16  0.00
  YS02001767YS02001765    1.00   0.00  0.00  0.00  1.00  0.00  0.00  0.00  0.00  0.00
  YS02006561YS02001783    1.00   0.05  0.00  0.00  0.42  0.53  0.00  0.00  0.60  0.00
  YS02001783YS02001784    1.00   0.00  0.05  0.00  0.95  0.00  0.00  0.00  0.00  0.00
  YS02001784YS02001785    1.00   0.00  0.00  0.00  1.00  0.00  0.00  0.00  0.17  0.00
  YS02001788YS02001790    1.00   0.00  0.00  0.00  0.49  0.51  0.00  0.00  0.51  0.00
  YS02001790YS02001791    1.00   0.00  0.00  0.00  0.48  0.52  0.00  0.00  0.42  0.00
  YS02001791YS02001793    1.00   0.00  0.00  0.00  0.49  0.51  0.00  0.00  0.03  0.00
  YS02001910YS02001907    1.00   0.00  0.00  0.00  0.98  0.00  0.00  0.02  0.12  0.00
  YS02001786YS02001788    1.00   0.00  0.00  0.00  0.48  0.52  0.00  0.00  0.00  0.00
  YS02001915YS02001910    1.00   0.00  0.00  0.00  0.99  0.01  0.00  0.00  0.16  0.00
  YS02001918YS02001915    1.00   0.00  0.01  0.00  0.98  0.01  0.00  0.00  0.59  0.00
  YS02001923YS02001920    1.00   0.00  0.00  0.00  1.00  0.00  0.00  0.00  0.87  0.00
  YS02001926YS02001923    1.00   0.00  0.03  0.00  0.09  0.00  0.88  0.00  0.00  0.00
  YS02001929YS02001926    1.00   0.00  0.04  0.00  0.96  0.00  0.00  0.00  0.85  0.00
  YS02001920YS02001918    1.00   0.00  0.01  0.00  0.99  0.00  0.00  0.00  0.00  0.00
  YS02001629YS02163301    1.00   0.04  0.00  0.00  0.95  0.00  0.00  0.00  0.00  0.00
  YS02001619YS02001622    1.00   0.04  0.00  0.00  0.96  0.00  0.00  0.00  0.00  0.00
  YS02001622YS02001625    1.00   0.04  0.00  0.00  0.96  0.00  0.00  0.00  0.04  0.00
  YS02001625YS02001629    1.00   0.04  0.01  0.00  0.93  0.00  0.01  0.00  0.00  0.00
  YS02163301YS02001633    1.00   0.00  0.04  0.00  0.96  0.00  0.00  0.00  0.00  0.00
  YS02163601YS02164001    1.00   0.00  0.03  0.00  0.97  0.00  0.00  0.00  0.00  0.00
  YS02164001YS02001641    1.00   0.01  0.02  0.00  0.97  0.00  0.00  0.00  0.06  0.00
  YS02001641YS02001644    1.00   0.00  0.01  0.00  0.99  0.00  0.00  0.00  0.00  0.00
  YS02001647YS02001649    1.00   0.00  0.05  0.00  0.95  0.00  0.00  0.00  0.01  0.00
  YS02006553YS02006556    1.00   0.01  0.00  0.00  0.99  0.00  0.00  0.00  0.03  0.00
  YS02006556YS02006558    1.00   0.00  0.00  0.00  1.00  0.00  0.00  0.00  0.00  0.00
  YSB6556YSB1171          1.00   0.03  0.01  0.00  0.96  0.00  0.00  0.00  0.00  0.00
  YS02001907YS02006553    1.00   0.00  0.02  0.00  0.98  0.00  0.00  0.00  0.00  0.00
  YS02006558YS02006561    1.00   0.05  0.00  0.00  0.15  0.80  0.00  0.00  0.51  0.00
  YS02001633YS02163601    1.00   0.00  0.01  0.00  0.99  0.00  0.00  0.00  0.15  0.00
  YS02001644YS02001647    1.00   0.00  0.05  0.00  0.95  0.00  0.00  0.00  0.00  0.00
  YS02001745YS02001748    1.00   0.00  0.00  0.00  0.90  0.01  0.00  0.09  0.05  0.00
  YS02001748YS02001751    1.00   0.00  0.00  0.00  0.98  0.02  0.00  0.00  0.14  0.00
  YS02001751YS02001754    1.00   0.00  0.00  0.00  0.95  0.00  0.00  0.05  0.02  0.00
  YS02001754YS02001757    1.00   0.00  0.00  0.00  0.99  0.01  0.00  0.00  0.18  0.00
  YS02001882YS02001884    1.00   0.04  0.00  0.00  0.95  0.00  0.00  0.00  0.00  0.00
  YS02001884YS02001887    1.00   0.03  0.01  0.00  0.96  0.00  0.00  0.00  0.00  0.00
  YS02001890YS02001895    1.00   0.00  0.04  0.00  0.95  0.00  0.00  0.00  0.00  0.00
  YS02001895YS02001898    1.00   0.05  0.00  0.00  0.95  0.00  0.01  0.00  0.00  0.00
  YS02001898YS02001901    1.00   0.05  0.00  0.00  0.95  0.00  0.00  0.00  0.01  0.00
  YS02001901YS02001904    1.00   0.05  0.00  0.00  0.95  0.00  0.00  0.00  0.00  0.00
  YS02001904YS02001907    1.00   0.00  0.04  0.00  0.95  0.00  0.00  0.00  0.00  0.00
  YS02001887YS02001890    1.00   0.00  0.00  0.00  0.98  0.00  0.02  0.00  0.00  0.00
  YS02001652YS02001649    1.00   0.00  0.00  0.00  1.00  0.00  0.00  0.00  0.16  0.00
  YS02001655YS02001652    1.00   0.00  0.00  0.00  0.95  0.00  0.00  0.05  0.02  0.00
  YS02001658YS02001655    1.00   0.00  0.04  0.00  0.93  0.02  0.00  0.00  0.03  0.00
  YS02001661YS02001658    1.00   0.04  0.00  0.00  0.90  0.06  0.00  0.00  0.04  0.00
  YS02001664YS02001661    1.00   0.04  0.00  0.00  0.86  0.10  0.00  0.00  0.20  0.00
  YSB1154YSB6556          1.00   0.04  0.00  0.00  0.96  0.00  0.00  0.00  0.02  0.00
  YSB1174YSB1171          1.00   0.03  0.01  0.00  0.97  0.00  0.00  0.00  0.00  0.00
  YSB1171HS02004479       1.00   0.03  0.00  0.00  0.97  0.00  0.00  0.00  0.10  0.00
  HS02004881HS02006253    1.00   0.03  0.00  0.00  0.81  0.03  0.00  0.14  0.67  0.00
  YS02001793JiankangQianchi    1.00   0.00  0.00  0.00  0.83  0.17  0.00  0.00  0.30  0.00
  YS02001757CaochengTiaoxuchi    1.00   0.00  0.06  0.00  0.92  0.02  0.00  0.00  0.00  0.00
  WSF200WS02003060        1.00   0.00  0.06  0.00  0.44  0.50  0.00  0.00  0.13  0.00
  1                       1.00   0.00  0.00  0.00  0.00  1.00  0.00  0.00  0.33  0.00
  2                       1.00   0.60  0.00  0.00  0.00  0.40  0.00  0.00  0.07  0.00
  3                       1.00   0.26  0.00  0.00  0.00  0.74  0.00  0.00  0.29  0.00
  4                       1.00   1.00  0.00  0.00  0.00  0.00  0.00  0.00  0.00  0.00
  
  
  *************************
  Conduit Surcharge Summary
  *************************
  
  ----------------------------------------------------------------------------
                                                           Hours        Hours 
                         --------- Hours Full --------   Above Full   Capacity
  Conduit                Both Ends  Upstream  Dnstream   Normal Flow   Limited
  ----------------------------------------------------------------------------
  WS02006229WS02006228        2.46      2.78      2.46      4.75         2.46
  WS02006256WS02006235        6.22      6.22      7.70      2.31         0.01
  WS02006253WS02006251        0.01      0.01      0.17      0.01         0.01
  WS02006252WS02006251        1.38      1.38      2.47      2.19         0.01
  WS02006251WS02006249        0.01      0.01      0.01      1.50         0.01
  WS02006249WS02006248        0.01      0.01      0.01      4.87         0.01
  WS02006248WS02006247        0.01      0.01      0.01      0.01         0.01
  WS02006247WS02006245        0.01      0.10      0.01      5.32         0.01
  WS02006245WS02006243        0.02      0.02      0.19      0.01         0.01
  WS02006243WS02006242        0.25      0.25      1.38      0.01         0.01
  WS02006242WS02006240        0.46      0.46      1.95      2.44         0.01
  WS02006240WS02006239        0.63      0.63      0.91      0.12         0.01
  WS02006239WS02006238        1.71      1.72      1.89      0.21         0.13
  WS02006238WS02006235        1.68      1.68      2.54      0.01         0.01
  WS02006235WS02006234        0.63      0.63      1.45      6.21         0.01
  WS02006234WS02006232        0.85      0.85      2.75      0.01         0.01
  WS02006232WS02006231        0.40      0.40      2.75      0.01         0.01
  WS02006231WS02006230        0.05      0.05      0.52      6.28         0.01
  WS02006230WS02006229        3.76      4.33      3.76      6.46         3.76
  WS02006228WS02006109        2.61      3.38      2.61      5.49         2.61
  WS02006112WS02006115        0.01      0.01      1.16      0.01         0.01
  WS02006111WS02006112        0.01      0.01      4.81      0.01         0.01
  WS02006110WS02006113        0.01      0.01      3.10      0.01         0.01
  WS02006109WS02006110        0.91      0.91      3.38      0.92         0.01
  WS02004405WS02004406        0.01      0.01      0.01      0.94         0.01
  WS02004404WS02004405        0.01      0.10      0.01      6.25         0.01
  WS02004403WS02004404        0.01      0.01      0.10      0.01         0.01
  WS02003072WS02003073        0.01      0.01      0.01      4.92         0.01
  YS02001759YS02001757        5.98      5.98      6.04      0.01         0.01
  YS02001762YS02001759        5.95      5.95      5.98      0.01         0.01
  YS02001765YS02001762        5.94      5.94      5.95      0.01         0.01
  YS02001770YS02001767        5.92      5.92      5.92      0.12         0.91
  YS02001774YS02001770        5.82      5.82      5.95      0.01         0.01
  YS02001779YS02001774        5.68      5.68      5.95      0.01         0.01
  YS02001649YS02001757        5.96      5.96      6.04      0.01         0.01
  YS02001767YS02001765        5.92      5.92      5.94      0.01         0.01
  YS02006561YS02001783        0.01      0.01      1.41      0.01         0.01
  YS02001783YS02001784        1.41      1.41      1.48      0.89         0.82
  YS02001784YS02001785        1.41      1.48      1.41      2.01         1.41
  YS02001788YS02001790        1.39      1.39      2.70      0.01         0.01
  YS02001790YS02001791        2.70      2.70      2.74      0.01         0.01
  YS02001791YS02001793        2.74      2.74      3.00      0.01         0.01
  YS02001910YS02001907        0.83      0.83      1.45      0.01         0.01
  YS02001786YS02001788        1.39      1.41      1.39      1.60         1.38
  YS02001915YS02001910        0.45      0.45      0.83      0.01         0.01
  YS02001918YS02001915        0.01      0.01      0.45      0.01         0.01
  YS02001629YS02163301        5.84      5.84      5.91      0.01         0.01
  YS02001619YS02001622        5.50      5.50      5.57      0.01         0.02
  YS02001622YS02001625        5.57      5.57      5.73      0.01         0.01
  YS02001625YS02001629        5.52      5.52      5.73      0.01         0.01
  YS02163301YS02001633        5.91      5.91      5.95      0.01         0.01
  YS02163601YS02164001        5.94      5.94      5.96      0.01         0.01
  YS02164001YS02001641        5.94      5.94      5.94      0.01         0.04
  YS02001641YS02001644        5.94      5.94      5.95      1.04         1.37
  YS02001647YS02001649        5.73      5.73      5.96      0.01         0.01
  YS02006553YS02006556        1.13      1.13      1.53      0.01         0.01
  YS02006556YS02006558        1.33      1.33      1.58      0.01         0.01
  YS02001907YS02006553        2.04      2.04      2.24      0.01         0.01
  YS02006558YS02006561        0.66      1.07      0.66      1.88         0.66
  YS02001633YS02163601        5.93      5.93      5.96      0.01         0.01
  YS02001644YS02001647        5.73      5.73      5.95      0.01         0.01
  YS02001745YS02001748        0.01      0.01      5.22      0.01         0.01
  YS02001748YS02001751        5.31      5.31      5.47      0.01         0.01
  YS02001751YS02001754        5.47      5.47      5.71      0.01         0.01
  YS02001754YS02001757        5.73      5.73      6.04      0.01         0.01
  YS02001882YS02001884        0.49      0.49      0.56      0.01         0.01
  YS02001884YS02001887        0.66      0.66      0.71      0.01         0.01
  YS02001890YS02001895        0.41      0.41      0.86      0.01         0.01
  YS02001895YS02001898        0.37      0.37      0.41      0.01         0.01
  YS02001898YS02001901        0.43      0.43      0.65      0.01         0.01
  YS02001901YS02001904        0.61      0.61      0.65      0.01         0.01
  YS02001904YS02001907        0.61      0.61      1.55      0.01         0.01
  YS02001887YS02001890        0.76      0.76      0.80      0.01         0.01
  YS02001652YS02001649        5.73      5.73      5.96      0.01         0.01
  YS02001655YS02001652        5.52      5.52      5.72      0.01         0.01
  YS02001658YS02001655        5.25      5.25      5.52      0.01         0.01
  YS02001661YS02001658        0.18      0.18      5.25      0.01         0.01
  YS02001664YS02001661        0.01      0.01      0.87      0.01         0.01
  YS02001793JiankangQianchi        2.89      2.89      5.14      0.01         0.01
  YS02001757CaochengTiaoxuchi        5.13      5.13      6.04      0.01         0.01
  
  
  ***************
  Pumping Summary
  ***************
  
  ---------------------------------------------------------------------------------------------------------
                                                  Min       Avg       Max     Total     Power    % Time Off
                        Percent   Number of      Flow      Flow      Flow    Volume     Usage    Pump Curve
  Pump                 Utilized   Start-Ups       LPS       LPS       LPS  10^6 ltr     Kw-hr    Low   High
  ---------------------------------------------------------------------------------------------------------
  CC-Pump-1               62.03           6      0.00    142.74    200.00     2.454      3.66    0.0   11.4
  CC-Pump-2               70.53           7      0.00    138.90    200.00     2.751      4.28    0.0   10.0
  JK-Pump-1               63.83          10      0.00    160.27    300.00     2.215     21.92    0.0    0.0
  JK-Pump-2               68.08           7      0.00    171.46    300.00     2.572     22.52    0.0    0.0
  XR-Pump-1               63.83           6      0.00     67.05     95.00     1.169      6.31    0.0    0.0
  XR-Pump-2               40.42           5      0.00     61.57     95.00     0.684      3.12    0.0    0.0
  XR-Pump-3               80.84           8      0.00     68.01     95.00     1.511      7.76    0.0    0.0
  XR-Pump-4               76.58           8      0.00     61.26     95.00     1.311      6.47    0.0    0.0
  

  Analysis begun on:  Tue Dec 14 15:40:53 2021
  Analysis ended on:  Tue Dec 14 15:40:58 2021
  Total elapsed time: 00:00:05