
  EPA STORM WATER MANAGEMENT MODEL - VERSION 5.1 (Build 5.3.0.dev0)
  --------------------------------------------------------------

  WARNING 04: minimum elevation drop used for Conduit WS02004404WS02004405
  WARNING 03: negative offset ignored for Link YS02001904YS02001907
  
  *********************************************************
  NOTE: The summary statistics displayed in this report are
  based on results found at every computational time step,  
  not just on results from each reporting time step.
  *********************************************************
  
  ****************
  Analysis Options
  ****************
  Flow Units ............... LPS
  Process Models:
    Rainfall/Runoff ........ YES
    RDII ................... NO
    Snowmelt ............... NO
    Groundwater ............ NO
    Flow Routing ........... YES
    Ponding Allowed ........ NO
    Water Quality .......... NO
  Infiltration Method ...... HORTON
  Flow Routing Method ...... DYNWAVE
  Surcharge Method ......... EXTRAN
  Starting Date ............ 08/28/2015 08:00:00
  Ending Date .............. 08/28/2015 15:50:00
  Antecedent Dry Days ...... 8.0
  Report Time Step ......... 00:01:00
  Wet Time Step ............ 00:01:00
  Dry Time Step ............ 00:01:00
  Routing Time Step ........ 5.00 sec
  Variable Time Step ....... YES
  Maximum Trials ........... 8
  Number of Threads ........ 4
  Head Tolerance ........... 0.001500 m
  
  
  **************************        Volume         Depth
  Runoff Quantity Continuity     hectare-m            mm
  **************************     ---------       -------
  Total Precipitation ......         5.493        12.027
  Evaporation Loss .........         0.000         0.000
  Infiltration Loss ........         1.412         3.091
  Surface Runoff ...........         3.074         6.729
  Final Storage ............         1.009         2.209
  Continuity Error (%) .....        -0.014
  
  
  **************************        Volume        Volume
  Flow Routing Continuity        hectare-m      10^6 ltr
  **************************     ---------     ---------
  Dry Weather Inflow .......         0.616         6.165
  Wet Weather Inflow .......         3.072        30.723
  Groundwater Inflow .......         0.000         0.000
  RDII Inflow ..............         0.000         0.000
  External Inflow ..........         0.102         1.024
  External Outflow .........         1.857        18.574
  Flooding Loss ............         1.473        14.732
  Evaporation Loss .........         0.000         0.000
  Exfiltration Loss ........         0.000         0.000
  Initial Stored Volume ....         0.076         0.761
  Final Stored Volume ......         0.635         6.348
  Continuity Error (%) .....        -2.537
  
  
  *************************
  Highest Continuity Errors
  *************************
  Node HS02004842 (16.38%)
  Node YS02001884 (10.51%)
  Node JK-storage (-10.25%)
  Node YSB1171 (3.16%)
  Node HS02004817 (3.01%)
  
  
  ***************************
  Time-Step Critical Elements
  ***************************
  Link 3 (48.15%)
  Link WS02006252WS02006251 (44.39%)
  Link WS02006238WS02006235 (2.00%)
  
  
  ********************************
  Highest Flow Instability Indexes
  ********************************
  Link YS02001619YS02001622 (41)
  Link YS02163301YS02001633 (40)
  Link YS02001629YS02163301 (40)
  Link YS02163601YS02164001 (39)
  Link WS02006113WS02006111 (38)
  
  
  *************************
  Routing Time Step Summary
  *************************
  Minimum Time Step           :     0.09 sec
  Average Time Step           :     0.76 sec
  Maximum Time Step           :     5.00 sec
  Percent in Steady State     :    -0.00
  Average Iterations per Step :     4.87
  Percent Not Converging      :    25.40
  
  
  ***************************
  Subcatchment Runoff Summary
  ***************************
  
  ------------------------------------------------------------------------------------------------------------------------------
                            Total      Total      Total      Total     Imperv       Perv      Total       Total     Peak  Runoff
                           Precip      Runon       Evap      Infil     Runoff     Runoff     Runoff      Runoff   Runoff   Coeff
  Subcatchment                 mm         mm         mm         mm         mm         mm         mm    10^6 ltr      LPS
  ------------------------------------------------------------------------------------------------------------------------------
  sub0                      12.03       0.00       0.00       0.84       9.92       0.00       9.92        0.01     2.03   0.825
  sub1                      12.03       0.00       0.00       1.32       9.45       0.00       9.45        0.06    13.40   0.786
  sub2                      12.03       0.00       0.00       4.45       6.67       0.00       6.67        0.06    12.40   0.555
  sub3                      12.03       0.00       0.00       4.45       6.63       0.00       6.63        0.15    27.80   0.552
  sub4                      12.03       0.00       0.00       1.32       9.30       0.00       9.30        0.19    33.44   0.773
  sub5                      12.03       0.00       0.00       0.84       9.87       0.00       9.87        0.11    23.84   0.821
  sub7                      12.03       0.00       0.00       1.08       9.69       0.00       9.69        0.03     7.67   0.806
  sub8                      12.03       0.00       0.00       1.08       9.68       0.00       9.68        0.06    14.05   0.805
  sub9                      12.03       0.00       0.00       1.08       9.68       0.00       9.68        0.05    10.50   0.805
  sub10                     12.03       0.00       0.00       0.96       9.77       0.00       9.77        0.11    23.44   0.813
  sub11                     12.03       0.00       0.00       0.96       9.79       0.00       9.79        0.11    26.14   0.814
  sub12                     12.03       0.00       0.00       1.56       9.28       0.00       9.28        0.08    19.99   0.771
  sub14                     12.03       0.00       0.00       1.08       9.68       0.00       9.68        0.09    20.64   0.805
  sub15                     12.03       0.00       0.00       3.61       7.44       0.00       7.44        0.13    28.31   0.619
  sub16                     12.03       0.00       0.00       3.97       7.14       0.00       7.14        0.07    18.12   0.594
  sub17                     12.03       0.00       0.00       3.85       7.24       0.00       7.24        0.06    14.90   0.602
  sub22                     12.03       0.00       0.00       5.17       6.07       0.00       6.07        0.38    88.71   0.504
  sub23                     12.03       0.00       0.00       4.45       6.71       0.00       6.71        0.32    74.74   0.558
  sub60                     12.03       0.00       0.00       1.44       7.74       0.00       7.74        2.35   221.95   0.644
  sub61                     12.03       0.00       0.00       2.04       7.85       0.00       7.85        2.42   262.11   0.653
  sub62                     12.03       0.00       0.00       0.96       8.54       0.00       8.54        2.63   273.68   0.710
  sub63                     12.03       0.00       0.00       3.49       6.87       0.00       6.87        2.08   239.63   0.571
  sub64                     12.03       0.00       0.00       1.80       7.43       0.00       7.43        2.26   211.47   0.618
  sub65                     12.03       0.00       0.00       1.56       7.55       0.00       7.55        2.32   215.23   0.628
  sub66                     12.03       0.00       0.00       3.49       6.37       0.00       6.37        1.95   191.04   0.530
  sub67                     12.03       0.00       0.00       0.96       9.00       0.00       9.00        2.78   332.67   0.749
  sub68                     12.03       0.00       0.00       1.68       8.26       0.00       8.26        2.54   285.76   0.687
  sub69                     12.03       0.00       0.00       1.80       8.55       0.00       8.55        2.00   265.64   0.711
  sub70                     12.03       8.73       0.00       6.95      11.44       0.11      11.55        2.64   261.84   0.556
  sub71                     12.03       0.00       0.00       0.96       8.33       0.00       8.33        1.97   195.24   0.692
  sub72                     12.03       0.00       0.00       0.84       6.67       0.00       6.67        1.36   105.11   0.555
  sub73                     12.03      11.24       0.00       7.83      12.57       0.08      12.65        2.97   255.46   0.544
  sub74                     12.03       0.00       0.00       9.02       2.55       0.00       2.55        1.02   143.98   0.212
  
  
  ******************
  Node Depth Summary
  ******************
  
  ---------------------------------------------------------------------------------
                                 Average  Maximum  Maximum  Time of Max    Reported
                                   Depth    Depth      HGL   Occurrence   Max Depth
  Node                 Type       Meters   Meters   Meters  days hr:min      Meters
  ---------------------------------------------------------------------------------
  WS02001211           JUNCTION     0.60     0.77     5.61     0  07:50        0.77
  WS02001212           JUNCTION     0.34     0.48     5.54     0  07:50        0.48
  WS02001213           JUNCTION     0.58     0.71     5.48     0  03:51        0.71
  WS02003069           JUNCTION     0.42     0.55     5.13     0  01:54        0.55
  WS02003072           JUNCTION     0.49     0.61     4.98     0  01:54        0.61
  WS02003073           JUNCTION     0.29     0.37     4.44     0  01:55        0.37
  WS02003060           JUNCTION     0.38     0.49     5.42     0  01:53        0.49
  WS02003066           JUNCTION     0.24     0.32     5.88     0  01:50        0.32
  WS02003059           JUNCTION     0.65     0.77     5.45     0  03:52        0.76
  WS02003067           JUNCTION     0.59     0.74     6.06     0  01:50        0.74
  WS02004401           JUNCTION     0.70     0.96     6.96     0  01:47        0.96
  WS02004402           JUNCTION     0.73     0.98     6.94     0  01:47        0.98
  WS02004403           JUNCTION     0.75     0.98     6.91     0  01:47        0.98
  WS02004404           JUNCTION     0.82     1.05     6.90     0  01:47        1.05
  WS02004406           JUNCTION     0.83     1.02     6.85     0  01:47        1.02
  WS02004409           JUNCTION     0.52     0.74     6.51     0  01:49        0.74
  WS02004410           JUNCTION     0.53     0.75     6.47     0  01:49        0.75
  WS02004411           JUNCTION     0.55     0.76     6.44     0  01:50        0.76
  WS02004412           JUNCTION     0.56     0.76     6.40     0  01:50        0.75
  WS02004413           JUNCTION     0.72     0.91     6.38     0  01:50        0.91
  WS02004405           JUNCTION     0.82     1.04     6.89     0  01:47        1.03
  WS02006109           JUNCTION     0.78     1.09     7.71     0  01:39        1.08
  WS02006110           JUNCTION     0.77     1.00     7.59     0  01:44        0.99
  WS02006111           JUNCTION     0.23     0.34     7.04     0  01:45        0.33
  WS02006112           JUNCTION     0.87     1.20     7.08     0  02:13        1.17
  WS02006113           JUNCTION     0.35     0.50     7.40     0  01:44        0.50
  WS02006115           JUNCTION     0.59     0.87     7.01     0  01:48        0.87
  WS02006116           JUNCTION     0.67     0.94     6.98     0  01:46        0.94
  WS02006230           JUNCTION     0.76     1.23     7.97     0  01:39        1.15
  WS02006231           JUNCTION     0.51     0.86     7.98     0  01:39        0.80
  WS02006232           JUNCTION     0.64     0.95     7.99     0  01:39        0.91
  WS02006234           JUNCTION     0.56     0.88     8.04     0  01:39        0.83
  WS02006235           JUNCTION     0.59     0.88     8.05     0  01:39        0.85
  WS02006238           JUNCTION     0.62     0.92     8.06     0  01:39        0.87
  WS02006240           JUNCTION     0.51     1.08     8.37     0  01:39        0.78
  WS02006242           JUNCTION     0.57     0.97     8.24     0  01:39        0.85
  WS02006243           JUNCTION     0.44     1.21     8.63     0  01:39        0.73
  WS02006245           JUNCTION     0.42     0.85     8.34     0  01:39        0.71
  WS02006247           JUNCTION     0.44     0.75     8.25     0  01:40        0.72
  WS02006248           JUNCTION     0.38     0.66     8.25     0  01:40        0.63
  WS02006249           JUNCTION     0.41     0.65     8.25     0  01:40        0.64
  WS02006239           JUNCTION     0.57     1.00     8.21     0  01:39        0.83
  WS02006251           JUNCTION     0.40     0.68     8.35     0  02:10        0.68
  WS02006252           JUNCTION     0.35     0.59     8.84     0  03:55        0.59
  WS02006253           JUNCTION     0.43     0.71     8.36     0  02:10        0.71
  WS02006256           JUNCTION     1.06     1.20     8.14     0  04:10        1.20
  WS02004138           JUNCTION     0.13     0.19     7.44     0  07:42        0.19
  WS02004407           JUNCTION     0.23     0.33     6.64     0  01:47        0.33
  WS02006228           JUNCTION     0.78     1.17     7.82     0  01:39        1.14
  WS02006229           JUNCTION     0.76     1.18     7.87     0  01:39        1.16
  WS02006280           JUNCTION     0.07     0.19     8.46     0  01:42        0.19
  WS02006284           JUNCTION     0.37     0.54     8.94     0  01:42        0.54
  WS02006287           JUNCTION     0.10     0.28     9.23     0  01:42        0.28
  WSF200               JUNCTION     0.23     0.34     5.57     0  01:51        0.34
  HS02004901           JUNCTION     0.13     0.28    10.10     0  01:39        0.28
  HS02004881           JUNCTION     0.01     0.03     9.06     0  01:43        0.03
  HS02004876           JUNCTION     0.04     0.12     9.15     0  01:43        0.12
  HS02004870           JUNCTION     0.02     0.06     9.35     0  01:43        0.06
  HS02004862           JUNCTION     0.02     0.07     9.45     0  01:44        0.07
  HS02004856           JUNCTION     0.08     0.12     9.55     0  01:44        0.12
  HS02004852           JUNCTION     0.01     0.04     9.56     0  01:52        0.04
  HS02004848           JUNCTION     0.01     0.04     9.64     0  01:51        0.04
  HS02004842           JUNCTION     0.33     0.37     9.64     0  01:51        0.37
  HS02004837           JUNCTION     0.03     0.06     9.64     0  01:51        0.06
  HS02004830           JUNCTION     0.04     0.08     9.55     0  01:45        0.08
  HS02004824           JUNCTION     0.02     0.06     9.46     0  01:54        0.06
  HS02004817           JUNCTION     0.44     0.59     9.43     0  01:43        0.59
  HS02004807           JUNCTION     0.13     0.26     9.43     0  01:43        0.26
  HS02004802           JUNCTION     0.16     0.30     9.42     0  01:43        0.29
  HS02004799           JUNCTION     0.12     0.33     9.54     0  01:40        0.33
  HS02004792           JUNCTION     0.03     0.14     9.66     0  01:40        0.14
  HS02004788           JUNCTION     0.03     0.10    10.00     0  01:40        0.10
  HS02004785           JUNCTION     0.05     0.17    10.07     0  01:40        0.17
  HS02004777           JUNCTION     0.15     0.30    10.10     0  01:39        0.30
  HS02004770           JUNCTION     0.12     0.27    10.10     0  01:39        0.27
  HS02004480           JUNCTION     0.08     0.27     9.51     0  01:41        0.27
  HS02004479           JUNCTION     0.12     0.30     9.51     0  01:40        0.30
  HS02004478           JUNCTION     0.06     0.18     9.41     0  01:42        0.18
  YS02001745           JUNCTION     0.73     0.88     8.40     0  02:56        0.88
  YS02001748           JUNCTION     1.13     2.27     9.35     0  02:06        1.32
  YS02001751           JUNCTION     1.32     2.20     9.08     0  02:07        1.53
  YS02001754           JUNCTION     1.58     2.20     8.81     0  02:07        1.81
  YS02001762           JUNCTION     1.78     2.09     8.49     0  02:07        2.02
  YS02001765           JUNCTION     1.73     2.02     8.47     0  02:07        1.97
  YS02001767           JUNCTION     1.69     1.98     8.47     0  02:07        1.92
  YS02001770           JUNCTION     1.69     1.95     8.44     0  02:06        1.91
  YS02001774           JUNCTION     1.76     2.02     8.44     0  02:06        1.98
  YS02001779           JUNCTION     1.50     1.68     8.37     0  02:06        1.68
  YS02001882           JUNCTION     0.51     1.38     8.09     0  02:31        1.37
  YS02001884           JUNCTION     0.60     1.48     8.09     0  02:29        1.47
  YS02001759           JUNCTION     1.81     2.12     8.49     0  02:07        2.06
  YS02001887           JUNCTION     0.68     1.55     8.09     0  02:30        1.54
  YS02001890           JUNCTION     0.71     1.58     8.09     0  02:28        1.57
  YS02001898           JUNCTION     0.48     1.34     8.07     0  02:30        1.34
  YS02001901           JUNCTION     0.60     1.46     8.07     0  02:30        1.46
  YS02001904           JUNCTION     0.58     1.43     8.06     0  02:30        1.43
  YS02001907           JUNCTION     0.90     1.77     8.06     0  02:31        1.77
  YS02001910           JUNCTION     0.69     1.56     8.07     0  02:29        1.56
  YS02001915           JUNCTION     0.49     1.36     8.07     0  02:29        1.35
  YS02001918           JUNCTION     0.25     1.00     8.07     0  02:31        1.00
  YS02001619           JUNCTION     1.29     1.61     8.54     0  02:01        1.49
  YS02001629           JUNCTION     1.65     1.85     8.40     0  02:04        1.85
  YS02001641           JUNCTION     1.74     1.98     8.42     0  02:07        1.97
  YS02001644           JUNCTION     1.75     1.92     8.35     0  02:06        1.92
  YS02001652           JUNCTION     1.59     2.16     8.76     0  02:25        2.08
  YS02001655           JUNCTION     1.35     2.20     9.05     0  02:02        1.90
  YS02001920           JUNCTION     0.35     1.05     8.06     0  02:30        1.05
  YS02001923           JUNCTION     0.19     0.80     8.06     0  02:31        0.80
  YS02001926           JUNCTION     0.24     0.62     8.07     0  02:30        0.61
  YS02001929           JUNCTION     0.12     0.37     8.07     0  02:30        0.37
  YS02001658           JUNCTION     1.08     2.30     9.44     0  02:02        1.68
  YS02001661           JUNCTION     0.84     2.46     9.86     0  02:25        1.48
  YS02001664           JUNCTION     0.36     0.57     8.50     0  02:40        0.56
  YS02001622           JUNCTION     1.31     1.62     8.52     0  02:03        1.50
  YS02001633           JUNCTION     1.74     2.02     8.48     0  02:07        1.99
  YS02001649           JUNCTION     1.79     2.05     8.44     0  02:22        2.05
  YS02001757           JUNCTION     1.91     2.21     8.47     0  02:07        2.16
  YS02001895           JUNCTION     0.47     1.34     8.08     0  02:30        1.32
  YS02001625           JUNCTION     1.60     1.78     8.38     0  02:02        1.78
  YS02163301           JUNCTION     1.68     1.94     8.46     0  02:07        1.91
  YS02163601           JUNCTION     1.79     2.07     8.47     0  02:07        2.05
  YS02164001           JUNCTION     1.73     2.00     8.46     0  02:07        1.98
  YS02001647           JUNCTION     1.58     1.81     8.42     0  02:27        1.80
  YSB1154              JUNCTION     0.26     0.45     9.51     0  01:40        0.45
  YSB6556              JUNCTION     0.15     0.34     9.51     0  01:40        0.34
  YSB1174              JUNCTION     0.21     0.40     9.51     0  01:41        0.40
  YSB1171              JUNCTION     0.41     0.61     9.51     0  01:40        0.61
  YS02006553           JUNCTION     0.91     1.77     8.05     0  02:31        1.76
  YS02006561           JUNCTION     0.29     0.93     7.59     0  02:31        0.93
  YS02006556           JUNCTION     0.87     1.72     8.03     0  02:29        1.71
  YS02006558           JUNCTION     0.92     1.75     8.02     0  02:30        1.75
  YS02001783           JUNCTION     0.53     2.26     8.40     0  01:54        1.33
  YS02001784           JUNCTION     0.55     2.29     8.36     0  01:54        1.29
  YS02001786           JUNCTION     0.50     1.82     7.85     0  01:54        1.16
  YS02001788           JUNCTION     0.44     1.73     7.71     0  01:54        1.06
  YS02001790           JUNCTION     0.57     1.96     7.60     0  01:52        1.24
  YS02001791           JUNCTION     0.57     1.62     7.09     0  01:54        1.25
  YS02001793           JUNCTION     0.80     3.20     8.03     0  01:50        1.79
  WS02004139           JUNCTION     0.54     0.72     5.63     0  07:50        0.72
  WSC                  OUTFALL      0.29     0.37     1.04     0  01:55        0.37
  3                    OUTFALL      0.10     0.20     6.20     0  04:10        0.20
  4                    OUTFALL      0.02     0.15     7.15     0  01:40        0.14
  5                    OUTFALL      0.00     0.00     5.00     0  00:00        0.00
  JK-storage           STORAGE      2.79     5.80     6.60     0  01:53        5.80
  CC-storage           STORAGE      1.14     1.39     8.39     0  02:56        1.39
  XR-storage           STORAGE      7.62     7.72     5.72     0  01:44        7.72
  
  
  *******************
  Node Inflow Summary
  *******************
  
  -------------------------------------------------------------------------------------------------
                                  Maximum  Maximum                  Lateral       Total        Flow
                                  Lateral    Total  Time of Max      Inflow      Inflow     Balance
                                   Inflow   Inflow   Occurrence      Volume      Volume       Error
  Node                 Type           LPS      LPS  days hr:min    10^6 ltr    10^6 ltr     Percent
  -------------------------------------------------------------------------------------------------
  WS02001211           JUNCTION      7.35   387.51     0  07:50       0.207        5.25       0.889
  WS02001212           JUNCTION      0.00   387.31     0  07:50           0         5.2       0.441
  WS02001213           JUNCTION      0.00   387.21     0  07:50           0        5.18       0.535
  WS02003069           JUNCTION      0.32   850.18     0  01:53     0.00902          14       0.249
  WS02003072           JUNCTION      0.00   849.98     0  01:54           0          14       0.295
  WS02003073           JUNCTION      1.82   851.71     0  01:54      0.0514          14       0.340
  WS02003060           JUNCTION     16.53   850.03     0  01:52       0.466          14       0.233
  WS02003066           JUNCTION      0.00   647.38     0  01:50           0        8.47       0.054
  WS02003059           JUNCTION      0.00   387.16     0  07:50           0        5.16       0.882
  WS02003067           JUNCTION      0.00   647.16     0  01:50           0        8.48       0.112
  WS02004401           JUNCTION      0.00   653.02     0  01:46           0        8.72       0.249
  WS02004402           JUNCTION      0.00   652.21     0  01:46           0         8.7       0.235
  WS02004403           JUNCTION      0.00   650.73     0  01:48           0        8.68       0.213
  WS02004404           JUNCTION      0.16   651.02     0  01:47     0.00457        8.66       0.161
  WS02004406           JUNCTION      0.00   650.81     0  01:47           0        8.63       0.391
  WS02004409           JUNCTION      0.00   650.36     0  01:47           0        8.59       0.195
  WS02004410           JUNCTION      0.00   648.84     0  01:49           0        8.57       0.220
  WS02004411           JUNCTION      0.00   648.12     0  01:49           0        8.55       0.225
  WS02004412           JUNCTION      0.00   647.73     0  01:50           0        8.53       0.243
  WS02004413           JUNCTION      0.00   647.49     0  01:50           0        8.51       0.358
  WS02004405           JUNCTION      0.04   650.61     0  01:47     0.00107        8.65       0.240
  WS02006109           JUNCTION      1.23   643.46     0  01:40      0.0347        8.78       0.249
  WS02006110           JUNCTION      0.00   643.59     0  01:40           0        8.76       0.226
  WS02006111           JUNCTION      0.00   673.48     0  01:43           0        8.73       0.053
  WS02006112           JUNCTION     14.90   659.62     0  01:45      0.0621        8.79       0.337
  WS02006113           JUNCTION      0.00   642.80     0  01:39           0        8.74       0.111
  WS02006115           JUNCTION      0.00   664.16     0  01:40           0        8.76       0.233
  WS02006116           JUNCTION      0.00   654.47     0  01:46           0        8.74       0.222
  WS02006230           JUNCTION     10.28   397.22     0  06:06        0.29        6.92       0.195
  WS02006231           JUNCTION      0.00   388.04     0  06:02           0        6.64       0.166
  WS02006232           JUNCTION      0.00   388.11     0  06:02           0        6.66       0.242
  WS02006234           JUNCTION      0.00   389.15     0  06:02           0        6.67       0.125
  WS02006235           JUNCTION      0.00   389.15     0  06:02           0        6.71       0.156
  WS02006238           JUNCTION      0.00   318.71     0  02:40           0        4.59       0.168
  WS02006240           JUNCTION      0.00   334.76     0  01:38           0        4.59       0.253
  WS02006242           JUNCTION      0.00   350.51     0  01:38           0        4.59       0.322
  WS02006243           JUNCTION      0.00   370.44     0  01:37           0        4.58      -0.054
  WS02006245           JUNCTION      0.00   381.98     0  01:37           0        4.59       0.263
  WS02006247           JUNCTION      0.00   388.76     0  01:37           0         4.6       0.146
  WS02006248           JUNCTION      0.00   396.69     0  01:36           0         4.6       0.072
  WS02006249           JUNCTION      0.00   471.96     0  01:38           0        5.11       0.218
  WS02006239           JUNCTION      0.00   317.86     0  02:40           0        4.59       0.248
  WS02006251           JUNCTION      0.08   473.72     0  01:40     0.00217        5.14       0.170
  WS02006252           JUNCTION      0.00   400.00     0  01:35           0        4.76       0.009
  WS02006253           JUNCTION      2.03    76.41     0  01:43     0.00803       0.381       1.024
  WS02006256           JUNCTION      0.00   600.00     0  04:40           0        6.29       0.048
  WS02004138           JUNCTION      0.00   380.00     0  07:40           0        5.07       0.058
  WS02004407           JUNCTION      0.00   650.82     0  01:47           0        8.59       0.087
  WS02006228           JUNCTION      0.00   642.20     0  01:40           0        8.76       0.171
  WS02006229           JUNCTION      0.00   640.70     0  01:40           0        8.78       0.157
  WS02006280           JUNCTION      0.00   366.28     0  01:42           0        1.87       0.003
  WS02006284           JUNCTION      0.10   366.31     0  01:42      0.0027        1.87       0.028
  WS02006287           JUNCTION      0.00   366.22     0  01:42           0        1.87       0.038
  WSF200               JUNCTION      0.00   647.47     0  01:50           0        8.47       0.050
  HS02004901           JUNCTION     18.12    18.12     0  01:36      0.0747      0.0749       2.401
  HS02004881           JUNCTION      7.67    74.61     0  01:43      0.0326       0.352       0.092
  HS02004876           JUNCTION     13.40    67.33     0  01:43      0.0628        0.32       0.168
  HS02004870           JUNCTION     14.05    54.07     0  01:43      0.0618       0.257       0.041
  HS02004862           JUNCTION     12.60    40.55     0  01:44      0.0678       0.196       0.087
  HS02004856           JUNCTION     10.50    27.98     0  01:43      0.0465       0.129       1.122
  HS02004852           JUNCTION      0.00    17.93     0  01:51           0      0.0829       0.064
  HS02004848           JUNCTION     27.80    27.80     0  01:53       0.149       0.149       0.028
  HS02004842           JUNCTION      0.00    10.09     0  01:58           0      0.0794      19.595
  HS02004837           JUNCTION     29.79    38.22     0  01:51       0.287       0.353       0.229
  HS02004830           JUNCTION      0.15    38.36     0  01:51     0.00423       0.344       0.361
  HS02004824           JUNCTION     33.49    71.74     0  01:54       0.195       0.538       0.100
  HS02004817           JUNCTION      0.60    72.33     0  01:54      0.0169       0.554       3.103
  HS02004807           JUNCTION     26.14    95.63     0  01:52       0.114       0.651       0.672
  HS02004802           JUNCTION      0.00    95.92     0  01:53           0       0.649       0.614
  HS02004799           JUNCTION     20.64   230.91     0  01:40      0.0921        1.05       0.258
  HS02004792           JUNCTION     88.99   210.33     0  01:39       0.391       0.955       0.041
  HS02004788           JUNCTION     29.98   122.04     0  01:40       0.175       0.565       0.069
  HS02004785           JUNCTION      0.15    92.14     0  01:39     0.00423       0.391       0.126
  HS02004777           JUNCTION      0.03    92.19     0  01:38    0.000846       0.391       1.344
  HS02004770           JUNCTION     74.74    92.54     0  01:38        0.32       0.393       0.790
  HS02004480           JUNCTION      0.00   273.94     0  01:41           0        1.24       0.088
  HS02004479           JUNCTION      0.00    43.16     0  01:41           0       0.201       0.365
  HS02004478           JUNCTION      0.00   366.17     0  01:42           0        1.87       0.020
  YS02001745           JUNCTION    221.95   428.90     0  02:05        2.35        2.36       0.457
  YS02001748           JUNCTION      0.04   613.99     0  02:06     0.00127        2.35       0.965
  YS02001751           JUNCTION      0.01   403.61     0  01:59     0.00031        2.31       1.040
  YS02001754           JUNCTION      0.26   249.69     0  02:06     0.00733         2.3       1.073
  YS02001762           JUNCTION      0.00   278.24     0  02:11           0        1.98       1.074
  YS02001765           JUNCTION      0.00   276.92     0  02:11           0        1.98       1.236
  YS02001767           JUNCTION      0.54   275.76     0  02:12      0.0151           2       1.803
  YS02001770           JUNCTION    273.83   348.38     0  03:01        2.63        2.77       1.135
  YS02001774           JUNCTION      0.00   349.25     0  03:01           0       0.907       2.831
  YS02001779           JUNCTION      0.01   349.78     0  03:01    0.000141       0.876       1.781
  YS02001882           JUNCTION      0.00    24.60     0  01:56           0      0.0172      13.862
  YS02001884           JUNCTION      0.00    55.29     0  01:55           0      0.0544      11.750
  YS02001759           JUNCTION    262.15   539.49     0  02:12        2.42        4.22       0.540
  YS02001887           JUNCTION    333.12   344.69     0  01:56        2.79        2.82       0.285
  YS02001890           JUNCTION      0.00   339.08     0  02:10           0        2.77       0.318
  YS02001898           JUNCTION      0.00   343.84     0  02:10           0        2.76       0.094
  YS02001901           JUNCTION      0.00   342.74     0  02:10           0        2.76       0.238
  YS02001904           JUNCTION      0.00   340.98     0  02:10           0        2.76       0.215
  YS02001907           JUNCTION      0.00   620.64     0  02:33           0        6.14       0.388
  YS02001910           JUNCTION      0.00   320.05     0  03:05           0        3.39       0.332
  YS02001915           JUNCTION    195.26   315.60     0  03:03        1.97         3.4       0.164
  YS02001918           JUNCTION      0.00   133.88     0  02:53           0        1.43       0.123
  YS02001619           JUNCTION    191.04   191.04     0  02:29        1.95        1.95       0.623
  YS02001629           JUNCTION      0.00   205.11     0  02:00           0        1.78       1.596
  YS02001641           JUNCTION      0.00   399.99     0  02:21           0        4.01       0.525
  YS02001644           JUNCTION    211.51  1053.85     0  02:59        2.26        8.34       0.311
  YS02001652           JUNCTION      0.00   308.15     0  02:03           0        2.03       1.115
  YS02001655           JUNCTION      0.15   477.55     0  01:57     0.00434        2.06       1.228
  YS02001920           JUNCTION      2.87   131.00     0  02:52      0.0809        1.44       0.203
  YS02001923           JUNCTION      0.04   116.00     0  02:51     0.00106        1.36       0.054
  YS02001926           JUNCTION      0.05   122.34     0  02:52     0.00147        1.36       0.221
  YS02001929           JUNCTION    105.11   105.11     0  02:59        1.36        1.36       0.036
  YS02001658           JUNCTION      0.00   652.01     0  02:02           0        2.08       1.055
  YS02001661           JUNCTION      0.00   635.53     0  02:24           0        2.88      -0.042
  YS02001664           JUNCTION    239.63   370.49     0  02:24        2.08        2.88       0.223
  YS02001622           JUNCTION      0.00   195.64     0  02:00           0        1.94       1.653
  YS02001633           JUNCTION    215.43   398.83     0  02:21        2.33        4.07       0.788
  YS02001649           JUNCTION      0.00   847.50     0  02:19           0        5.45       0.681
  YS02001757           JUNCTION      0.00  1576.77     0  02:20           0        9.66       0.948
  YS02001895           JUNCTION      0.00   339.98     0  02:09           0        2.77       0.180
  YS02001625           JUNCTION      0.00   205.32     0  02:00           0        1.91       2.093
  YS02163301           JUNCTION      0.00   209.59     0  02:04           0        1.77       1.365
  YS02163601           JUNCTION      0.11   399.17     0  02:21      0.0031        4.02       0.748
  YS02164001           JUNCTION      0.00   399.58     0  02:21           0           4       0.498
  YS02001647           JUNCTION      0.00   605.99     0  02:21           0         4.4       0.642
  YSB1154              JUNCTION     23.84    23.84     0  01:41       0.112       0.113       1.298
  YSB6556              JUNCTION      0.00    24.02     0  01:41           0       0.113       1.117
  YSB1174              JUNCTION     19.99    19.99     0  01:36       0.081      0.0815       1.597
  YSB1171              JUNCTION      0.00    43.58     0  01:40           0         0.2       3.266
  YS02006553           JUNCTION      0.00   620.40     0  02:33           0        6.13       0.246
  YS02006561           JUNCTION      0.00   900.17     0  02:30           0        8.64       0.008
  YS02006556           JUNCTION      0.00   620.40     0  02:33           0        6.14       0.178
  YS02006558           JUNCTION    286.64   900.45     0  02:30        2.56        8.67       0.058
  YS02001783           JUNCTION      0.00   900.25     0  02:30           0        8.64       0.024
  YS02001784           JUNCTION      1.06   901.47     0  02:29      0.0299        8.66       0.039
  YS02001786           JUNCTION      0.06   901.39     0  02:30     0.00159        8.66       0.036
  YS02001788           JUNCTION      0.07   901.38     0  02:30       0.002        8.66       0.022
  YS02001790           JUNCTION      0.15   901.57     0  02:30     0.00437        8.66       0.025
  YS02001791           JUNCTION      0.00   901.68     0  02:30           0        8.66       0.013
  YS02001793           JUNCTION      0.00   901.55     0  02:30           0        8.66       0.002
  WS02004139           JUNCTION      0.32   380.32     0  07:42     0.00905        5.08       0.777
  WSC                  OUTFALL       0.00   851.63     0  01:55           0        13.9       0.000
  3                    OUTFALL       0.00   496.66     0  04:10           0        4.14       0.000
  4                    OUTFALL       0.00   207.49     0  01:40           0       0.494       0.000
  5                    OUTFALL       0.00     0.00     0  00:00           0           0       0.000 ltr
  JK-storage           STORAGE       0.00   962.21     0  01:50           0        8.81      -9.299
  CC-storage           STORAGE       0.00  1576.32     0  02:20           0        8.39       0.281
  XR-storage           STORAGE     560.10   560.10     0  02:30        9.63        10.2      -0.000
  
  
  **********************
  Node Surcharge Summary
  **********************
  
  Surcharging occurs when water rises above the top of the highest conduit.
  ---------------------------------------------------------------------
                                               Max. Height   Min. Depth
                                   Hours       Above Crown    Below Rim
  Node                 Type      Surcharged         Meters       Meters
  ---------------------------------------------------------------------
  WS02004404           JUNCTION        0.33          0.047        2.733
  WS02004406           JUNCTION        0.16          0.021        2.429
  WS02004405           JUNCTION        0.20          0.036        2.764
  WS02006109           JUNCTION        2.21          0.273        1.547
  WS02006110           JUNCTION        1.01          0.092        1.758
  WS02006112           JUNCTION        1.19          0.198        1.482
  WS02006230           JUNCTION        0.29          0.148        1.422
  WS02006231           JUNCTION        0.40          0.150        1.380
  WS02006232           JUNCTION        2.31          0.254        1.226
  WS02006234           JUNCTION        0.76          0.165        1.075
  WS02006235           JUNCTION        1.46          0.173        1.117
  WS02006238           JUNCTION        1.80          0.199        1.231
  WS02006240           JUNCTION        0.64          0.365        1.025
  WS02006242           JUNCTION        1.34          0.240        0.580
  WS02006243           JUNCTION        0.13          0.499        0.271
  WS02006245           JUNCTION        0.01          0.141        0.709
  WS02006247           JUNCTION        0.01          0.038        0.722
  WS02006239           JUNCTION        0.80          0.260        1.030
  WS02006252           JUNCTION        1.93          0.193        0.907
  WS02006228           JUNCTION        2.11          0.336        1.864
  YS02001748           JUNCTION        5.59          1.190        0.000
  YS02001751           JUNCTION        5.80          1.200        0.000
  YS02001754           JUNCTION        5.97          1.150        0.000
  YS02001762           JUNCTION        6.15          1.089        0.061
  YS02001765           JUNCTION        6.13          1.019        0.081
  YS02001767           JUNCTION        6.12          0.979        0.051
  YS02001770           JUNCTION        6.11          0.920        0.000
  YS02001774           JUNCTION        6.14          1.017        0.033
  YS02001779           JUNCTION        5.94          0.680        0.000
  YS02001882           JUNCTION        0.94          0.378        0.452
  YS02001884           JUNCTION        1.00          0.416        0.454
  YS02001759           JUNCTION        6.15          1.123        0.087
  YS02001887           JUNCTION        1.11          0.503        0.447
  YS02001890           JUNCTION        1.16          0.529        0.231
  YS02001898           JUNCTION        0.86          0.309        0.431
  YS02001901           JUNCTION        1.06          0.465        0.405
  YS02001904           JUNCTION        1.03          0.432        0.418
  YS02001907           JUNCTION        1.69          0.761        0.189
  YS02001910           JUNCTION        1.21          0.560        0.540
  YS02001915           JUNCTION        0.92          0.356        0.644
  YS02001619           JUNCTION        5.80          0.610        0.000
  YS02001629           JUNCTION        5.82          0.470        0.000
  YS02001641           JUNCTION        6.13          0.983        0.117
  YS02001644           JUNCTION        6.13          0.920        0.000
  YS02001652           JUNCTION        6.02          1.130        0.000
  YS02001655           JUNCTION        5.83          1.200        0.000
  YS02001920           JUNCTION        0.27          0.054        1.086
  YS02001658           JUNCTION        5.64          1.300        0.000
  YS02001661           JUNCTION        0.23          1.390        0.000
  YS02001622           JUNCTION        5.83          0.620        0.000
  YS02001633           JUNCTION        6.12          1.004        0.056
  YS02001649           JUNCTION        6.14          1.050        0.000
  YS02001757           JUNCTION        6.19          1.210        0.000
  YS02001895           JUNCTION        0.88          0.338        0.412
  YS02001625           JUNCTION        6.09          0.780        0.000
  YS02163301           JUNCTION        6.11          0.944        0.086
  YS02163601           JUNCTION        6.15          1.072        0.008
  YS02164001           JUNCTION        6.12          1.001        0.099
  YS02001647           JUNCTION        6.06          0.805        0.095
  YS02006553           JUNCTION        1.76          0.766        0.424
  YS02006561           JUNCTION        0.62          0.129        1.021
  YS02006556           JUNCTION        1.45          0.676        0.674
  YS02006558           JUNCTION        1.41          0.652        0.748
  YS02001783           JUNCTION        1.54          1.464        0.136
  YS02001784           JUNCTION        1.62          1.490        0.000
  YS02001786           JUNCTION        1.55          1.022        0.408
  YS02001788           JUNCTION        1.53          0.929        0.551
  YS02001790           JUNCTION        2.56          1.157        0.000
  YS02001791           JUNCTION        2.63          0.822        1.098
  YS02001793           JUNCTION        2.85          2.201        0.399
  
  
  *********************
  Node Flooding Summary
  *********************
  
  Flooding refers to all water that overflows a node, whether it ponds or not.
  --------------------------------------------------------------------------
                                                             Total   Maximum
                                 Maximum   Time of Max       Flood    Ponded
                        Hours       Rate    Occurrence      Volume     Depth
  Node                 Flooded       LPS   days hr:min    10^6 ltr    Meters
  --------------------------------------------------------------------------
  YS02001748              0.01    238.00      0  02:07       0.000     0.000
  YS02001751              0.01      2.93      0  02:07       0.000     0.000
  YS02001754              0.01     20.72      0  02:08       0.000     0.000
  YS02001770              0.01      4.85      0  02:07       0.000     0.000
  YS02001779              2.51    349.55      0  03:01       0.856     0.000
  YS02001619              0.01     23.89      0  02:04       0.000     0.000
  YS02001629              0.01     41.48      0  02:06       0.001     0.000
  YS02001644              3.73   1053.80      0  02:59       6.000     0.000
  YS02001652              0.01      9.24      0  02:41       0.000     0.000
  YS02001655              0.01     88.18      0  02:02       0.000     0.000
  YS02001658              0.01    313.54      0  02:02       0.000     0.000
  YS02001661              0.01    145.26      0  02:41       0.000     0.000
  YS02001622              0.01     25.85      0  02:03       0.000     0.000
  YS02001649              0.08     43.72      0  02:29       0.004     0.000
  YS02001757              0.01     20.17      0  02:07       0.000     0.000
  YS02001625              0.87     48.61      0  02:30       0.098     0.000
  YS02001784              0.01     80.25      0  01:54       0.000     0.000
  YS02001790              0.01    111.94      0  01:52       0.000     0.000
  JK-storage              2.20    878.13      0  02:40       3.430     0.000
  XR-storage              5.49    550.06      0  03:00       4.342     0.000
  
  
  **********************
  Storage Volume Summary
  **********************
  
  --------------------------------------------------------------------------------------------------
                         Average     Avg  Evap Exfil       Maximum     Max    Time of Max    Maximum
                          Volume    Pcnt  Pcnt  Pcnt        Volume    Pcnt     Occurrence    Outflow
  Storage Unit           1000 m3    Full  Loss  Loss       1000 m3    Full    days hr:min        LPS
  --------------------------------------------------------------------------------------------------
  JK-storage               0.140      48     0     0         0.291     100       0  01:53     600.00
  CC-storage               3.176      20     0     0         3.873      25       0  02:56     400.00
  XR-storage               0.914      99     0     0         0.926     100       0  01:44     380.00
  
  
  ***********************
  Outfall Loading Summary
  ***********************
  
  -----------------------------------------------------------
                         Flow       Avg       Max       Total
                         Freq      Flow      Flow      Volume
  Outfall Node           Pcnt       LPS       LPS    10^6 ltr
  -----------------------------------------------------------
  WSC                   99.99    554.07    851.63      13.938
  3                     85.01    216.98    496.66       4.142
  4                     30.65     65.44    207.49       0.494
  5                      0.00      0.00      0.00       0.000
  -----------------------------------------------------------
  System                53.91    836.49   1160.96      18.574
  
  
  ********************
  Link Flow Summary
  ********************
  
  -----------------------------------------------------------------------------
                                 Maximum  Time of Max   Maximum    Max/    Max/
                                  |Flow|   Occurrence   |Veloc|    Full    Full
  Link                 Type          LPS  days hr:min     m/sec    Flow   Depth
  -----------------------------------------------------------------------------
  WS02003066WSF200     CONDUIT    647.47     0  01:50      2.91    0.11    0.25
  WS02006287WS02006284 CONDUIT    366.21     0  01:42      1.96    0.17    0.29
  WS02006284WS02006280 CONDUIT    366.28     0  01:42      2.20    0.15    0.26
  WS02006280WS02006229 CONDUIT    366.28     0  01:42      3.55    0.08    0.19
  WS02006229WS02006228 CONDUIT    642.20     0  01:40      1.28    2.13    1.00
  WS02006256WS02006235 CONDUIT    166.25     0  00:01      2.58    1.76    1.00
  WS02006253WS02006251 CONDUIT     92.25     0  01:41      0.58    0.28    0.98
  WS02006252WS02006251 CONDUIT    400.57     0  02:39      3.19    1.47    1.00
  WS02006251WS02006249 CONDUIT    471.96     0  01:38      1.31    1.36    0.94
  WS02006249WS02006248 CONDUIT    396.69     0  01:36      1.30    2.17    0.91
  WS02006248WS02006247 CONDUIT    388.76     0  01:37      1.26    0.85    0.97
  WS02006247WS02006245 CONDUIT    381.98     0  01:37      1.23    3.03    1.00
  WS02006245WS02006243 CONDUIT    370.44     0  01:37      1.29    1.10    1.00
  WS02006243WS02006242 CONDUIT    350.51     0  01:38      1.10    0.75    1.00
  WS02006242WS02006240 CONDUIT    334.76     0  01:38      0.94    1.33    1.00
  WS02006240WS02006239 CONDUIT    317.86     0  02:40      0.91    1.00    1.00
  WS02006239WS02006238 CONDUIT    318.71     0  02:40      0.83    1.02    1.00
  WS02006238WS02006235 CONDUIT    318.52     0  02:40      1.25    0.71    1.00
  WS02006235WS02006234 CONDUIT    389.15     0  06:02      1.04    4.11    1.00
  WS02006234WS02006232 CONDUIT    388.11     0  06:02      1.13    0.79    1.00
  WS02006232WS02006231 CONDUIT    388.04     0  06:02      1.06    0.81    1.00
  WS02006231WS02006230 CONDUIT    386.94     0  06:06      1.35    5.87    1.00
  WS02006230WS02006229 CONDUIT    397.25     0  06:09      1.03    8.84    1.00
  WS02006228WS02006109 CONDUIT    642.23     0  01:40      1.28    2.81    1.00
  WS02006116WS02004401 CONDUIT    653.02     0  01:46      0.88    0.90    0.95
  WS02006115WS02006116 CONDUIT    654.47     0  01:46      0.99    0.84    0.88
  WS02006113WS02006111 CONDUIT    673.48     0  01:43      2.62    0.81    0.52
  WS02006112WS02006115 CONDUIT    664.16     0  01:40      0.92    0.39    0.93
  WS02006111WS02006112 CONDUIT    646.04     0  01:45      1.74    0.31    0.70
  WS02006110WS02006113 CONDUIT    642.80     0  01:39      1.48    0.58    0.81
  WS02006109WS02006110 CONDUIT    643.59     0  01:40      1.28    1.24    1.00
  WS02004411WS02004412 CONDUIT    647.73     0  01:50      1.02    0.92    0.76
  WS02004401WS02004402 CONDUIT    652.21     0  01:46      0.84    0.78    0.97
  WS02004413WS02003067 CONDUIT    647.16     0  01:50      1.23    0.28    0.63
  WS02004412WS02004413 CONDUIT    647.49     0  01:50      0.93    0.43    0.83
  WS02004410WS02004411 CONDUIT    648.12     0  01:49      1.02    0.89    0.75
  WS02004409WS02004410 CONDUIT    648.84     0  01:49      1.06    0.84    0.75
  WS02004407WS02004409 CONDUIT    650.36     0  01:47      1.61    0.23    0.53
  WS02004406WS02004407 CONDUIT    650.82     0  01:47      1.18    0.29    0.66
  WS02004405WS02004406 CONDUIT    650.81     0  01:47      0.83    1.28    1.00
  WS02004404WS02004405 CONDUIT    650.57     0  01:47      0.84    6.37    1.00
  WS02004403WS02004404 CONDUIT    650.86     0  01:47      0.83    0.47    0.99
  WS02004402WS02004403 CONDUIT    650.73     0  01:48      0.83    0.93    0.98
  WS02004139WS02001211 CONDUIT    380.17     0  07:50      0.57    0.48    0.58
  WS02004138WS02004139 CONDUIT    380.00     0  07:42      1.27    0.08    0.43
  WS02003067WS02003066 CONDUIT    647.38     0  01:50      1.34    0.21    0.44
  WS02001213WS02003059 CONDUIT    387.16     0  07:50      0.67    0.64    0.73
  WS02001212WS02001213 CONDUIT    387.21     0  07:50      1.31    0.60    0.44
  WS02001211WS02001212 CONDUIT    387.31     0  07:50      0.77    0.30    0.63
  WS02003072WS02003073 CONDUIT    849.89     0  01:54      1.67    1.84    0.46
  WS02003069WS02003072 CONDUIT    849.98     0  01:54      1.57    0.41    0.48
  WS02003060WS02003069 CONDUIT    849.86     0  01:53      1.82    0.33    0.43
  WS02003059WS02003060 CONDUIT    387.11     0  07:50      0.93    0.25    0.62
  HS02004901HS02004770 CONDUIT     17.82     0  01:38      0.06    0.07    0.40
  HS02004876HS02004881 CONDUIT     67.33     0  01:43      0.89    0.72    0.11
  HS02004870HS02004876 CONDUIT     54.05     0  01:43      0.61    0.04    0.13
  HS02004842HS02004848 CONDUIT     10.09     0  01:58      0.05    0.01    0.30
  HS02004837HS02004842 CONDUIT     10.33     0  02:00      0.41    0.01    0.31
  HS02004830HS02004837 CONDUIT     38.21     0  01:51      0.54    0.04    0.10
  HS02004824HS02004830 CONDUIT     38.37     0  01:52      0.57    0.05    0.10
  HS02004817HS02004824 CONDUIT     71.73     0  01:54      0.22    0.03    0.46
  HS02004770HS02004777 CONDUIT     92.16     0  01:38      0.32    0.17    0.41
  HS02004799HS02004480 CONDUIT    230.86     0  01:40      0.78    0.29    0.42
  HS02004792HS02004799 CONDUIT    210.30     0  01:40      0.89    0.13    0.34
  HS02004788HS02004792 CONDUIT    122.00     0  01:40      1.02    0.08    0.17
  HS02004785HS02004788 CONDUIT     92.10     0  01:40      0.67    0.69    0.20
  HS02004777HS02004785 CONDUIT     91.99     0  01:39      0.39    0.11    0.34
  HS02004480HS02004478 CONDUIT    273.64     0  01:41      1.21    1.15    0.32
  HS02004479HS02004480 CONDUIT     43.48     0  01:42      0.30    0.04    0.41
  HS02004862HS02004870 CONDUIT     40.54     0  01:45      0.62    0.04    0.09
  HS02004848HS02004852 CONDUIT     17.93     0  01:51      0.42    0.02    0.06
  HS02004856HS02004862 CONDUIT     27.96     0  01:44      0.46    0.03    0.09
  HS02004852HS02004856 CONDUIT     17.92     0  01:52      0.22    0.02    0.12
  HS02004802HS02004478 CONDUIT     96.20     0  01:53      0.42    0.08    0.34
  HS02004478WS02006287 CONDUIT    366.22     0  01:42      1.67    0.10    0.24
  HS02004817HS02004807 CONDUIT     72.77     0  01:55      0.17    0.04    0.61
  HS02004807HS02004802 CONDUIT     95.92     0  01:53      0.36    0.18    0.39
  YS02001759YS02001757 CONDUIT    540.41     0  02:12      0.69    0.38    1.00
  YS02001762YS02001759 CONDUIT    279.40     0  02:11      0.36    0.32    1.00
  YS02001765YS02001762 CONDUIT    278.24     0  02:11      0.35    0.26    1.00
  YS02001770YS02001767 CONDUIT    275.22     0  02:12      0.42    1.09    1.00
  YS02001774YS02001770 CONDUIT    349.25     0  03:01      0.44    0.22    1.00
  YS02001779YS02001774 CONDUIT    349.78     0  03:01      0.45    0.18    1.00
  YS02001649YS02001757 CONDUIT    847.83     0  02:20      1.08    0.51    1.00
  YS02001767YS02001765 CONDUIT    276.92     0  02:11      0.38    0.35    1.00
  YS02006561YS02001783 CONDUIT    900.25     0  02:30      2.12    0.47    1.00
  YS02001783YS02001784 CONDUIT    900.41     0  02:29      1.79    1.24    1.00
  YS02001784YS02001785 CONDUIT    901.34     0  02:30      1.79    2.10    1.00
  YS02001788YS02001790 CONDUIT    901.42     0  02:30      2.25    0.66    1.00
  YS02001790YS02001791 CONDUIT    901.68     0  02:30      2.68    0.98    1.00
  YS02001791YS02001793 CONDUIT    901.55     0  02:30      5.38    0.39    1.00
  YS02001910YS02001907 CONDUIT    319.96     0  03:05      0.49    0.18    1.00
  YS02001786YS02001788 CONDUIT    901.31     0  02:30      2.16    1.74    1.00
  YS02001915YS02001910 CONDUIT    320.05     0  03:05      0.58    0.16    1.00
  YS02001918YS02001915 CONDUIT    144.84     0  03:07      0.44    0.08    1.00
  YS02001923YS02001920 CONDUIT    128.13     0  02:52      0.68    0.06    0.90
  YS02001926YS02001923 CONDUIT    115.96     0  02:51      0.78    0.17    0.61
  YS02001929YS02001926 CONDUIT    122.29     0  02:52      0.83    0.06    0.49
  YS02001920YS02001918 CONDUIT    133.88     0  02:53      0.67    0.13    1.00
  YS02001629YS02163301 CONDUIT    209.59     0  02:04      0.27    0.26    1.00
  YS02001619YS02001622 CONDUIT    195.64     0  02:00      0.73    0.29    1.00
  YS02001622YS02001625 CONDUIT    205.32     0  02:00      0.36    0.11    1.00
  YS02001625YS02001629 CONDUIT    205.11     0  02:00      0.30    0.10    1.00
  YS02163301YS02001633 CONDUIT    209.65     0  02:04      0.27    0.20    1.00
  YS02163601YS02164001 CONDUIT    399.58     0  02:21      0.51    0.35    1.00
  YS02164001YS02001641 CONDUIT    399.99     0  02:21      0.51    0.55    1.00
  YS02001641YS02001644 CONDUIT    400.05     0  02:21      0.51    1.29    1.00
  YS02001647YS02001649 CONDUIT    605.94     0  02:21      0.77    0.32    1.00
  YS02006553YS02006556 CONDUIT    620.40     0  02:33      0.79    0.53    1.00
  YS02006556YS02006558 CONDUIT    620.59     0  02:33      0.79    0.49    1.00
  YSB6556YSB1171       CONDUIT     24.42     0  01:43      0.09    0.03    0.68
  YS02001907YS02006553 CONDUIT    620.40     0  02:33      0.69    0.73    1.00
  YS02006558YS02006561 CONDUIT    900.17     0  02:30      3.18    1.99    1.00
  YS02001633YS02163601 CONDUIT    399.06     0  02:21      0.51    0.42    1.00
  YS02001644YS02001647 CONDUIT    605.99     0  02:21      0.77    0.36    1.00
  YS02001745YS02001748 CONDUIT    613.94     0  02:06      1.64    0.24    0.94
  YS02001748YS02001751 CONDUIT    403.60     0  01:59      1.23    0.20    1.00
  YS02001751YS02001754 CONDUIT    249.43     0  02:06      1.05    0.12    1.00
  YS02001754YS02001757 CONDUIT    249.63     0  02:06      0.33    0.10    1.00
  YS02001882YS02001884 CONDUIT     24.60     0  01:56      0.15    0.03    1.00
  YS02001884YS02001887 CONDUIT     55.29     0  01:55      0.11    0.07    1.00
  YS02001890YS02001895 CONDUIT    339.98     0  02:09      0.48    0.16    1.00
  YS02001895YS02001898 CONDUIT    343.84     0  02:10      0.60    0.60    1.00
  YS02001898YS02001901 CONDUIT    342.74     0  02:10      0.52    0.22    1.00
  YS02001901YS02001904 CONDUIT    340.98     0  02:10      0.47    0.53    1.00
  YS02001904YS02001907 CONDUIT    339.71     0  02:10      0.43    0.12    1.00
  YS02001887YS02001890 CONDUIT    339.08     0  02:10      0.45    0.58    1.00
  YS02001652YS02001649 CONDUIT    308.34     0  02:03      0.61    0.15    1.00
  YS02001655YS02001652 CONDUIT    308.15     0  02:03      1.11    0.15    1.00
  YS02001658YS02001655 CONDUIT    477.39     0  01:57      1.42    0.20    1.00
  YS02001661YS02001658 CONDUIT    652.01     0  02:02      1.73    0.26    1.00
  YS02001664YS02001661 CONDUIT    635.53     0  02:24      1.63    0.20    0.72
  YSB1154YSB6556       CONDUIT     24.02     0  01:41      0.15    0.04    0.57
  YSB1174YSB1171       CONDUIT     20.01     0  01:36      0.07    0.03    0.68
  YSB1171HS02004479    CONDUIT     43.16     0  01:41      0.54    0.03    0.54
  HS02004881HS02006253 CONDUIT     74.61     0  01:43      2.12    0.01    0.29
  YS02001793JiankangQianchi CONDUIT    962.21     0  01:50     12.10    0.08    1.00
  YS02001757CaochengTiaoxuchi CONDUIT   1576.32     0  02:20      2.50    0.69    1.00
  WSF200WS02003060     CONDUIT    647.57     0  01:51      2.09    0.14    0.34
  1                    CONDUIT    851.63     0  01:55      3.19    0.30    0.37
  2                    CONDUIT    207.49     0  01:40      5.89    0.50    0.50
  3                    CONDUIT    496.66     0  04:10      9.80    0.79    0.68
  4                    CONDUIT      0.00     0  00:00      0.00    0.00    0.00
  CC-Pump-1            PUMP       200.00     0  01:35              1.00
  CC-Pump-2            PUMP       200.00     0  01:35              1.00
  JK-Pump-1            PUMP       300.00     0  03:10              1.00
  JK-Pump-2            PUMP       300.00     0  00:00              1.00
  XR-Pump-1            PUMP        95.00     0  00:20              1.00
  XR-Pump-2            PUMP        95.00     0  01:10              1.00
  XR-Pump-3            PUMP        95.00     0  00:40              1.00
  XR-Pump-4            PUMP        95.00     0  00:20              1.00
  
  
  ***************************
  Flow Classification Summary
  ***************************
  
  -------------------------------------------------------------------------------------
                      Adjusted    ---------- Fraction of Time in Flow Class ---------- 
                       /Actual         Up    Down  Sub   Sup   Up    Down  Norm  Inlet 
  Conduit               Length    Dry  Dry   Dry   Crit  Crit  Crit  Crit  Ltd   Ctrl  
  -------------------------------------------------------------------------------------
  WS02003066WSF200        1.00   0.05  0.01  0.00  0.00  0.94  0.00  0.00  0.63  0.00
  WS02006287WS02006284    1.00   0.03  0.01  0.00  0.61  0.34  0.00  0.00  0.72  0.00
  WS02006284WS02006280    1.00   0.04  0.00  0.00  0.00  0.00  0.00  0.96  0.00  0.00
  WS02006280WS02006229    1.00   0.04  0.00  0.00  0.00  0.00  0.00  0.96  0.00  0.00
  WS02006229WS02006228    1.00   0.00  0.00  0.00  0.99  0.00  0.00  0.01  0.00  0.00
  WS02006256WS02006235    1.00   0.00  0.00  0.00  1.00  0.00  0.00  0.00  0.00  0.00
  WS02006253WS02006251    1.00   0.03  0.01  0.00  0.96  0.00  0.00  0.00  0.00  0.00
  WS02006252WS02006251    1.00   0.05  0.00  0.00  0.00  0.00  0.95  0.00  0.00  0.00
  WS02006251WS02006249    1.00   0.00  0.00  0.00  1.00  0.00  0.00  0.00  0.18  0.00
  WS02006249WS02006248    1.00   0.00  0.02  0.00  0.92  0.00  0.06  0.00  0.00  0.00
  WS02006248WS02006247    1.00   0.02  0.00  0.00  0.98  0.00  0.00  0.00  0.07  0.00
  WS02006247WS02006245    1.00   0.02  0.00  0.00  0.98  0.00  0.00  0.00  0.00  0.00
  WS02006245WS02006243    1.00   0.01  0.00  0.00  0.96  0.00  0.00  0.02  0.01  0.00
  WS02006243WS02006242    1.00   0.01  0.00  0.00  0.99  0.00  0.00  0.00  0.15  0.00
  WS02006242WS02006240    1.00   0.00  0.00  0.00  0.99  0.00  0.00  0.00  0.00  0.00
  WS02006240WS02006239    1.00   0.00  0.00  0.00  0.97  0.00  0.00  0.02  0.01  0.00
  WS02006239WS02006238    1.00   0.00  0.00  0.00  1.00  0.00  0.00  0.00  0.00  0.00
  WS02006238WS02006235    1.00   0.00  0.00  0.00  1.00  0.00  0.00  0.00  0.00  0.00
  WS02006235WS02006234    1.00   0.00  0.00  0.00  0.97  0.00  0.03  0.00  0.00  0.00
  WS02006234WS02006232    1.00   0.00  0.00  0.00  1.00  0.00  0.00  0.00  0.01  0.00
  WS02006232WS02006231    1.00   0.00  0.00  0.00  0.99  0.00  0.00  0.00  0.00  0.00
  WS02006231WS02006230    1.00   0.00  0.00  0.00  0.59  0.00  0.41  0.00  0.00  0.00
  WS02006230WS02006229    1.00   0.00  0.00  0.00  0.99  0.00  0.00  0.01  0.01  0.00
  WS02006228WS02006109    1.00   0.00  0.00  0.00  1.00  0.00  0.00  0.00  0.00  0.00
  WS02006116WS02004401    1.00   0.02  0.00  0.00  0.98  0.00  0.00  0.00  0.00  0.00
  WS02006115WS02006116    1.00   0.02  0.00  0.00  0.97  0.00  0.00  0.01  0.00  0.00
  WS02006113WS02006111    1.00   0.02  0.00  0.00  0.00  0.98  0.00  0.00  0.11  0.00
  WS02006112WS02006115    1.00   0.02  0.00  0.00  0.98  0.00  0.00  0.00  0.00  0.00
  WS02006111WS02006112    1.00   0.02  0.00  0.00  0.98  0.00  0.00  0.00  0.95  0.00
  WS02006110WS02006113    1.00   0.01  0.01  0.00  0.98  0.00  0.00  0.00  0.00  0.00
  WS02006109WS02006110    1.00   0.00  0.01  0.00  0.98  0.00  0.01  0.00  0.00  0.00
  WS02004411WS02004412    1.00   0.03  0.00  0.00  0.97  0.00  0.00  0.00  0.00  0.00
  WS02004401WS02004402    1.00   0.02  0.00  0.00  0.98  0.00  0.00  0.00  0.00  0.00
  WS02004413WS02003067    1.00   0.04  0.01  0.00  0.00  0.00  0.95  0.00  0.00  0.00
  WS02004412WS02004413    1.00   0.04  0.00  0.00  0.96  0.00  0.00  0.00  0.03  0.00
  WS02004410WS02004411    1.00   0.03  0.00  0.00  0.97  0.00  0.00  0.00  0.03  0.00
  WS02004409WS02004410    1.00   0.03  0.00  0.00  0.97  0.00  0.00  0.00  0.00  0.00
  WS02004407WS02004409    1.00   0.03  0.00  0.00  0.96  0.00  0.00  0.00  0.89  0.00
  WS02004406WS02004407    1.00   0.00  0.03  0.00  0.97  0.00  0.00  0.00  0.00  0.00
  WS02004405WS02004406    1.00   0.00  0.00  0.00  1.00  0.00  0.00  0.00  0.01  0.00
  WS02004404WS02004405    1.00   0.00  0.00  0.00  1.00  0.00  0.00  0.00  0.00  0.00
  WS02004403WS02004404    1.00   0.00  0.02  0.00  0.98  0.00  0.00  0.00  0.01  0.00
  WS02004402WS02004403    1.00   0.02  0.00  0.00  0.98  0.00  0.00  0.00  0.00  0.00
  WS02004139WS02001211    1.00   0.00  0.01  0.00  0.99  0.00  0.00  0.00  0.00  0.00
  WS02004138WS02004139    1.00   0.02  0.00  0.00  0.98  0.00  0.00  0.00  0.98  0.00
  WS02003067WS02003066    1.00   0.05  0.00  0.00  0.94  0.00  0.00  0.00  0.00  0.00
  WS02001213WS02003059    1.00   0.00  0.01  0.00  0.99  0.00  0.00  0.00  0.00  0.00
  WS02001212WS02001213    1.00   0.02  0.00  0.00  0.88  0.00  0.10  0.00  0.00  0.00
  WS02001211WS02001212    1.00   0.00  0.02  0.00  0.98  0.00  0.00  0.00  0.00  0.00
  WS02003072WS02003073    1.00   0.00  0.00  0.00  0.00  0.00  0.00  1.00  0.00  0.00
  WS02003069WS02003072    1.00   0.00  0.00  0.00  0.99  0.01  0.00  0.00  0.23  0.00
  WS02003060WS02003069    1.00   0.00  0.00  0.00  0.99  0.01  0.00  0.00  0.14  0.00
  WS02003059WS02003060    1.00   0.00  0.00  0.00  1.00  0.00  0.00  0.00  0.04  0.00
  HS02004901HS02004770    1.00   0.04  0.00  0.00  0.96  0.00  0.00  0.00  0.00  0.00
  HS02004876HS02004881    1.00   0.02  0.00  0.00  0.91  0.07  0.00  0.00  0.00  0.00
  HS02004870HS02004876    1.00   0.01  0.00  0.00  0.99  0.00  0.00  0.00  0.95  0.00
  HS02004842HS02004848    1.00   0.00  0.04  0.00  0.96  0.00  0.00  0.00  0.58  0.00
  HS02004837HS02004842    1.00   0.00  0.00  0.00  0.99  0.01  0.00  0.00  0.11  0.00
  HS02004830HS02004837    1.00   0.00  0.00  0.00  1.00  0.00  0.00  0.00  0.99  0.00
  HS02004824HS02004830    1.00   0.00  0.00  0.00  1.00  0.00  0.00  0.00  0.00  0.00
  HS02004817HS02004824    1.00   0.00  0.00  0.00  1.00  0.00  0.00  0.00  1.00  0.00
  HS02004770HS02004777    1.00   0.00  0.04  0.00  0.96  0.00  0.00  0.00  0.02  0.00
  HS02004799HS02004480    1.00   0.00  0.02  0.00  0.96  0.00  0.02  0.00  0.00  0.00
  HS02004792HS02004799    1.00   0.00  0.00  0.00  0.99  0.01  0.00  0.00  0.98  0.00
  HS02004788HS02004792    1.00   0.00  0.00  0.00  0.99  0.01  0.00  0.00  0.98  0.00
  HS02004785HS02004788    1.00   0.00  0.00  0.00  1.00  0.00  0.00  0.00  0.00  0.00
  HS02004777HS02004785    1.00   0.00  0.00  0.00  1.00  0.00  0.00  0.00  0.12  0.00
  HS02004480HS02004478    1.00   0.04  0.00  0.00  0.67  0.00  0.00  0.29  0.00  0.00
  HS02004479HS02004480    1.00   0.02  0.00  0.00  0.98  0.00  0.00  0.00  0.11  0.00
  HS02004862HS02004870    1.00   0.00  0.00  0.00  1.00  0.00  0.00  0.00  0.03  0.00
  HS02004848HS02004852    1.00   0.04  0.00  0.00  0.96  0.00  0.00  0.00  0.78  0.00
  HS02004856HS02004862    1.00   0.00  0.04  0.00  0.96  0.00  0.00  0.00  0.83  0.00
  HS02004852HS02004856    1.00   0.04  0.00  0.00  0.96  0.00  0.00  0.00  0.86  0.00
  HS02004802HS02004478    1.00   0.04  0.00  0.00  0.96  0.00  0.00  0.00  0.02  0.00
  HS02004478WS02006287    1.00   0.04  0.00  0.00  0.76  0.19  0.00  0.00  0.69  0.00
  HS02004817HS02004807    1.00   0.00  0.04  0.00  0.96  0.00  0.00  0.00  0.01  0.00
  HS02004807HS02004802    1.00   0.04  0.00  0.00  0.96  0.00  0.00  0.00  0.00  0.00
  YS02001759YS02001757    1.00   0.00  0.00  0.00  1.00  0.00  0.00  0.00  0.16  0.00
  YS02001762YS02001759    1.00   0.00  0.00  0.00  1.00  0.00  0.00  0.00  0.03  0.00
  YS02001765YS02001762    1.00   0.00  0.00  0.00  1.00  0.00  0.00  0.00  0.13  0.00
  YS02001770YS02001767    1.00   0.00  0.00  0.00  1.00  0.00  0.00  0.00  0.00  0.00
  YS02001774YS02001770    1.00   0.00  0.04  0.00  0.96  0.00  0.00  0.00  0.03  0.00
  YS02001779YS02001774    1.00   0.00  0.00  0.00  1.00  0.00  0.00  0.00  0.17  0.00
  YS02001649YS02001757    1.00   0.00  0.00  0.00  1.00  0.00  0.00  0.00  0.16  0.00
  YS02001767YS02001765    1.00   0.00  0.00  0.00  1.00  0.00  0.00  0.00  0.00  0.00
  YS02006561YS02001783    1.00   0.05  0.00  0.00  0.39  0.56  0.00  0.00  0.56  0.00
  YS02001783YS02001784    1.00   0.00  0.05  0.00  0.95  0.00  0.00  0.00  0.00  0.00
  YS02001784YS02001785    1.00   0.00  0.00  0.00  1.00  0.00  0.00  0.00  0.16  0.00
  YS02001788YS02001790    1.00   0.00  0.00  0.00  0.46  0.54  0.00  0.00  0.51  0.00
  YS02001790YS02001791    1.00   0.00  0.00  0.00  0.45  0.55  0.00  0.00  0.44  0.00
  YS02001791YS02001793    1.00   0.00  0.00  0.00  0.44  0.56  0.00  0.00  0.01  0.00
  YS02001910YS02001907    1.00   0.00  0.00  0.00  0.98  0.00  0.00  0.02  0.12  0.00
  YS02001786YS02001788    1.00   0.00  0.00  0.00  0.45  0.55  0.00  0.00  0.00  0.00
  YS02001915YS02001910    1.00   0.00  0.00  0.00  0.99  0.01  0.00  0.00  0.14  0.00
  YS02001918YS02001915    1.00   0.00  0.01  0.00  0.98  0.01  0.00  0.00  0.57  0.00
  YS02001923YS02001920    1.00   0.00  0.00  0.00  1.00  0.00  0.00  0.00  0.82  0.00
  YS02001926YS02001923    1.00   0.00  0.03  0.00  0.15  0.00  0.82  0.00  0.00  0.00
  YS02001929YS02001926    1.00   0.00  0.04  0.00  0.96  0.00  0.00  0.00  0.78  0.00
  YS02001920YS02001918    1.00   0.00  0.01  0.00  0.99  0.00  0.00  0.00  0.00  0.00
  YS02001629YS02163301    1.00   0.04  0.00  0.00  0.96  0.00  0.00  0.00  0.00  0.00
  YS02001619YS02001622    1.00   0.04  0.00  0.00  0.96  0.00  0.00  0.00  0.00  0.00
  YS02001622YS02001625    1.00   0.04  0.00  0.00  0.96  0.00  0.00  0.00  0.04  0.00
  YS02001625YS02001629    1.00   0.04  0.01  0.00  0.94  0.00  0.01  0.00  0.00  0.00
  YS02163301YS02001633    1.00   0.00  0.04  0.00  0.96  0.00  0.00  0.00  0.00  0.00
  YS02163601YS02164001    1.00   0.00  0.03  0.00  0.97  0.00  0.00  0.00  0.00  0.00
  YS02164001YS02001641    1.00   0.01  0.02  0.00  0.97  0.00  0.00  0.00  0.06  0.00
  YS02001641YS02001644    1.00   0.00  0.01  0.00  0.99  0.00  0.00  0.00  0.00  0.00
  YS02001647YS02001649    1.00   0.00  0.04  0.00  0.96  0.00  0.00  0.00  0.01  0.00
  YS02006553YS02006556    1.00   0.01  0.00  0.00  0.99  0.00  0.00  0.00  0.03  0.00
  YS02006556YS02006558    1.00   0.00  0.00  0.00  1.00  0.00  0.00  0.00  0.00  0.00
  YSB6556YSB1171          1.00   0.03  0.01  0.00  0.96  0.00  0.00  0.00  0.00  0.00
  YS02001907YS02006553    1.00   0.00  0.02  0.00  0.98  0.00  0.00  0.00  0.00  0.00
  YS02006558YS02006561    1.00   0.05  0.00  0.00  0.19  0.76  0.00  0.00  0.50  0.00
  YS02001633YS02163601    1.00   0.00  0.01  0.00  0.99  0.00  0.00  0.00  0.15  0.00
  YS02001644YS02001647    1.00   0.00  0.04  0.00  0.96  0.00  0.00  0.00  0.00  0.00
  YS02001745YS02001748    1.00   0.00  0.00  0.00  0.93  0.00  0.00  0.07  0.03  0.00
  YS02001748YS02001751    1.00   0.00  0.00  0.00  0.98  0.02  0.00  0.00  0.14  0.00
  YS02001751YS02001754    1.00   0.00  0.00  0.00  0.95  0.00  0.00  0.05  0.01  0.00
  YS02001754YS02001757    1.00   0.00  0.00  0.00  0.99  0.01  0.00  0.00  0.17  0.00
  YS02001882YS02001884    1.00   0.04  0.00  0.00  0.96  0.00  0.00  0.00  0.00  0.00
  YS02001884YS02001887    1.00   0.03  0.01  0.00  0.96  0.00  0.00  0.00  0.00  0.00
  YS02001890YS02001895    1.00   0.00  0.04  0.00  0.96  0.00  0.00  0.00  0.00  0.00
  YS02001895YS02001898    1.00   0.04  0.00  0.00  0.95  0.00  0.00  0.00  0.00  0.00
  YS02001898YS02001901    1.00   0.04  0.00  0.00  0.96  0.00  0.00  0.00  0.01  0.00
  YS02001901YS02001904    1.00   0.04  0.00  0.00  0.96  0.00  0.00  0.00  0.00  0.00
  YS02001904YS02001907    1.00   0.00  0.04  0.00  0.96  0.00  0.00  0.00  0.00  0.00
  YS02001887YS02001890    1.00   0.00  0.00  0.00  0.98  0.00  0.02  0.00  0.00  0.00
  YS02001652YS02001649    1.00   0.00  0.00  0.00  1.00  0.00  0.00  0.00  0.15  0.00
  YS02001655YS02001652    1.00   0.00  0.00  0.00  0.95  0.00  0.00  0.05  0.01  0.00
  YS02001658YS02001655    1.00   0.00  0.04  0.00  0.94  0.02  0.00  0.00  0.02  0.00
  YS02001661YS02001658    1.00   0.04  0.00  0.00  0.93  0.03  0.00  0.00  0.03  0.00
  YS02001664YS02001661    1.00   0.04  0.00  0.00  0.90  0.06  0.00  0.00  0.15  0.00
  YSB1154YSB6556          1.00   0.04  0.00  0.00  0.96  0.00  0.00  0.00  0.01  0.00
  YSB1174YSB1171          1.00   0.03  0.01  0.00  0.97  0.00  0.00  0.00  0.00  0.00
  YSB1171HS02004479       1.00   0.02  0.00  0.00  0.97  0.00  0.00  0.00  0.10  0.00
  HS02004881HS02006253    1.00   0.03  0.00  0.00  0.74  0.03  0.00  0.21  0.64  0.00
  YS02001793JiankangQianchi    1.00   0.00  0.00  0.00  0.59  0.40  0.00  0.00  0.15  0.00
  YS02001757CaochengTiaoxuchi    1.00   0.00  0.05  0.00  0.91  0.03  0.00  0.00  0.00  0.00
  WSF200WS02003060        1.00   0.00  0.05  0.00  0.42  0.53  0.00  0.00  0.12  0.00
  1                       1.00   0.00  0.00  0.00  0.00  1.00  0.00  0.00  0.27  0.00
  2                       1.00   0.69  0.00  0.00  0.00  0.31  0.00  0.00  0.08  0.00
  3                       1.00   0.15  0.00  0.00  0.00  0.85  0.00  0.00  0.24  0.00
  4                       1.00   1.00  0.00  0.00  0.00  0.00  0.00  0.00  0.00  0.00
  
  
  *************************
  Conduit Surcharge Summary
  *************************
  
  ----------------------------------------------------------------------------
                                                           Hours        Hours 
                         --------- Hours Full --------   Above Full   Capacity
  Conduit                Both Ends  Upstream  Dnstream   Normal Flow   Limited
  ----------------------------------------------------------------------------
  WS02006229WS02006228        2.11      2.30      2.11      4.80         2.11
  WS02006256WS02006235        6.43      6.43      7.68      3.59         0.01
  WS02006253WS02006251        0.01      0.01      0.02      0.01         0.01
  WS02006252WS02006251        1.06      1.06      1.93      1.70         0.01
  WS02006251WS02006249        0.01      0.01      0.01      1.18         0.01
  WS02006249WS02006248        0.01      0.01      0.01      4.60         0.01
  WS02006248WS02006247        0.01      0.01      0.01      0.01         0.01
  WS02006247WS02006245        0.01      0.03      0.01      5.09         0.01
  WS02006245WS02006243        0.01      0.01      0.12      0.05         0.01
  WS02006243WS02006242        0.30      0.30      1.34      0.01         0.01
  WS02006242WS02006240        0.64      0.64      1.71      1.87         0.01
  WS02006240WS02006239        0.74      0.74      0.80      0.01         0.02
  WS02006239WS02006238        1.65      1.65      1.80      0.01         0.02
  WS02006238WS02006235        1.70      1.70      2.05      0.01         0.01
  WS02006235WS02006234        0.76      0.76      1.46      6.44         0.01
  WS02006234WS02006232        0.90      0.90      2.31      0.01         0.01
  WS02006232WS02006231        0.40      0.40      2.31      0.01         0.01
  WS02006231WS02006230        0.28      0.28      0.54      6.43         0.01
  WS02006230WS02006229        3.44      4.28      3.44      6.52         3.43
  WS02006228WS02006109        2.20      2.76      2.20      5.90         2.20
  WS02006112WS02006115        0.01      0.01      1.19      0.01         0.01
  WS02006111WS02006112        0.01      0.01      4.97      0.01         0.01
  WS02006110WS02006113        0.01      0.01      2.54      0.01         0.01
  WS02006109WS02006110        1.01      1.01      2.77      1.01         0.01
  WS02004406WS02004407        0.01      0.01      0.16      0.01         0.01
  WS02004405WS02004406        0.16      0.20      0.16      1.14         0.16
  WS02004404WS02004405        0.20      0.33      0.20      6.34         0.20
  WS02004403WS02004404        0.01      0.01      0.33      0.01         0.01
  WS02003072WS02003073        0.01      0.01      0.01      4.93         0.01
  HS02004480HS02004478        0.01      0.01      0.01      0.41         0.01
  YS02001759YS02001757        6.15      6.15      6.19      0.01         0.01
  YS02001762YS02001759        6.15      6.15      6.15      0.01         0.01
  YS02001765YS02001762        6.13      6.13      6.15      0.01         0.01
  YS02001770YS02001767        6.12      6.13      6.12      0.43         0.87
  YS02001774YS02001770        6.11      6.11      6.14      0.01         0.01
  YS02001779YS02001774        5.94      5.94      6.14      0.01         0.01
  YS02001649YS02001757        6.14      6.14      6.19      0.01         0.01
  YS02001767YS02001765        6.12      6.12      6.13      0.01         0.01
  YS02006561YS02001783        0.62      0.62      1.54      0.01         0.01
  YS02001783YS02001784        1.54      1.54      1.62      1.28         1.21
  YS02001784YS02001785        1.55      1.62      1.55      2.19         1.54
  YS02001788YS02001790        1.53      1.53      2.56      0.01         0.01
  YS02001790YS02001791        2.56      2.56      2.63      0.01         0.03
  YS02001791YS02001793        2.63      2.63      2.88      0.01         0.01
  YS02001910YS02001907        1.21      1.21      1.69      0.01         0.01
  YS02001786YS02001788        1.53      1.55      1.53      1.91         1.53
  YS02001915YS02001910        0.92      0.92      1.21      0.01         0.01
  YS02001918YS02001915        0.01      0.01      0.92      0.01         0.01
  YS02001923YS02001920        0.01      0.01      0.27      0.01         0.01
  YS02001920YS02001918        0.01      0.01      0.27      0.01         0.01
  YS02001629YS02163301        6.10      6.10      6.11      0.01         0.01
  YS02001619YS02001622        5.80      5.80      5.83      0.01         0.01
  YS02001622YS02001625        5.83      5.83      6.09      0.01         0.01
  YS02001625YS02001629        5.82      5.82      6.09      0.01         0.01
  YS02163301YS02001633        6.11      6.11      6.12      0.01         0.01
  YS02163601YS02164001        6.12      6.12      6.15      0.01         0.01
  YS02164001YS02001641        6.12      6.12      6.13      0.01         0.03
  YS02001641YS02001644        6.13      6.13      6.13      1.39         1.49
  YS02001647YS02001649        6.06      6.06      6.14      0.01         0.01
  YS02006553YS02006556        1.45      1.45      1.76      0.01         0.01
  YS02006556YS02006558        1.59      1.59      1.82      0.01         0.01
  YS02001907YS02006553        2.23      2.23      2.42      0.01         0.01
  YS02006558YS02006561        1.07      1.41      1.07      2.10         1.07
  YS02001633YS02163601        6.12      6.12      6.15      0.01         0.01
  YS02001644YS02001647        6.06      6.06      6.13      0.01         0.01
  YS02001745YS02001748        0.01      0.01      5.59      0.01         0.01
  YS02001748YS02001751        5.67      5.67      5.80      0.01         0.01
  YS02001751YS02001754        5.80      5.80      5.97      0.01         0.01
  YS02001754YS02001757        6.03      6.03      6.19      0.01         0.01
  YS02001882YS02001884        0.94      0.94      1.00      0.01         0.01
  YS02001884YS02001887        1.08      1.08      1.11      0.01         0.01
  YS02001890YS02001895        0.88      0.88      1.24      0.01         0.01
  YS02001895YS02001898        0.86      0.86      0.88      0.01         0.01
  YS02001898YS02001901        0.90      0.90      1.06      0.01         0.01
  YS02001901YS02001904        1.03      1.03      1.06      0.01         0.01
  YS02001904YS02001907        1.03      1.03      1.78      0.01         0.01
  YS02001887YS02001890        1.16      1.16      1.19      0.01         0.01
  YS02001652YS02001649        6.06      6.06      6.14      0.01         0.01
  YS02001655YS02001652        5.83      5.83      6.02      0.01         0.01
  YS02001658YS02001655        5.64      5.64      5.83      0.01         0.01
  YS02001661YS02001658        0.22      0.22      5.64      0.01         0.01
  YS02001664YS02001661        0.01      0.01      1.14      0.01         0.01
  YS02001793JiankangQianchi        2.85      2.85      3.47      0.01         0.01
  YS02001757CaochengTiaoxuchi        5.46      5.46      6.19      0.01         0.01
  
  
  ***************
  Pumping Summary
  ***************
  
  ---------------------------------------------------------------------------------------------------------
                                                  Min       Avg       Max     Total     Power    % Time Off
                        Percent   Number of      Flow      Flow      Flow    Volume     Usage    Pump Curve
  Pump                 Utilized   Start-Ups       LPS       LPS       LPS  10^6 ltr     Kw-hr    Low   High
  ---------------------------------------------------------------------------------------------------------
  CC-Pump-1               63.36           6      0.00    136.84    200.00     2.470      3.10    0.0    6.0
  CC-Pump-2               54.85           5      0.00    148.58    200.00     2.290      3.16    0.0    6.9
  JK-Pump-1               76.59           7      0.00    165.17    300.00     2.959     34.48    0.0    0.0
  JK-Pump-2               82.98           6      0.00    175.22    300.00     3.325     36.27    0.0    0.0
  XR-Pump-1               59.56           7      0.00     62.40     95.00     1.054      5.51    0.0    0.0
  XR-Pump-2               72.32           9      0.00     60.35     95.00     1.282      6.29    0.0    0.0
  XR-Pump-3               72.32           9      0.00     58.66     95.00     1.282      6.60    0.0    0.0
  XR-Pump-4               76.59           7      0.00     67.90     95.00     1.453      7.55    0.0    0.0
  

  Analysis begun on:  Tue Dec 14 15:47:23 2021
  Analysis ended on:  Tue Dec 14 15:47:28 2021
  Total elapsed time: 00:00:05