
  EPA STORM WATER MANAGEMENT MODEL - VERSION 5.1 (Build 5.3.0.dev0)
  --------------------------------------------------------------

  WARNING 04: minimum elevation drop used for Conduit WS02004404WS02004405
  WARNING 03: negative offset ignored for Link YS02001904YS02001907
  
  *********************************************************
  NOTE: The summary statistics displayed in this report are
  based on results found at every computational time step,  
  not just on results from each reporting time step.
  *********************************************************
  
  ****************
  Analysis Options
  ****************
  Flow Units ............... LPS
  Process Models:
    Rainfall/Runoff ........ YES
    RDII ................... NO
    Snowmelt ............... NO
    Groundwater ............ NO
    Flow Routing ........... YES
    Ponding Allowed ........ NO
    Water Quality .......... NO
  Infiltration Method ...... HORTON
  Flow Routing Method ...... DYNWAVE
  Surcharge Method ......... EXTRAN
  Starting Date ............ 08/28/2015 08:00:00
  Ending Date .............. 08/28/2015 15:50:00
  Antecedent Dry Days ...... 8.0
  Report Time Step ......... 00:01:00
  Wet Time Step ............ 00:01:00
  Dry Time Step ............ 00:01:00
  Routing Time Step ........ 5.00 sec
  Variable Time Step ....... YES
  Maximum Trials ........... 8
  Number of Threads ........ 4
  Head Tolerance ........... 0.001500 m
  
  
  **************************        Volume         Depth
  Runoff Quantity Continuity     hectare-m            mm
  **************************     ---------       -------
  Total Precipitation ......         4.854        10.627
  Evaporation Loss .........         0.000         0.000
  Infiltration Loss ........         1.246         2.727
  Surface Runoff ...........         2.607         5.707
  Final Storage ............         1.002         2.194
  Continuity Error (%) .....        -0.015
  
  
  **************************        Volume        Volume
  Flow Routing Continuity        hectare-m      10^6 ltr
  **************************     ---------     ---------
  Dry Weather Inflow .......         0.616         6.165
  Wet Weather Inflow .......         2.606        26.059
  Groundwater Inflow .......         0.000         0.000
  RDII Inflow ..............         0.000         0.000
  External Inflow ..........         0.102         1.024
  External Outflow .........         1.883        18.831
  Flooding Loss ............         0.945         9.450
  Evaporation Loss .........         0.000         0.000
  Exfiltration Loss ........         0.000         0.000
  Initial Stored Volume ....         0.076         0.761
  Final Stored Volume ......         0.615         6.145
  Continuity Error (%) .....        -1.231
  
  
  *************************
  Highest Continuity Errors
  *************************
  Node HS02004842 (17.68%)
  Node YS02001884 (10.41%)
  Node YS02001774 (9.26%)
  Node JK-storage (-5.19%)
  Node YSB1171 (3.62%)
  
  
  ***************************
  Time-Step Critical Elements
  ***************************
  Link WS02006252WS02006251 (44.63%)
  Link 3 (42.95%)
  Link WS02006238WS02006235 (4.87%)
  Link 2 (1.50%)
  Link WS02006280WS02006229 (1.03%)
  
  
  ********************************
  Highest Flow Instability Indexes
  ********************************
  Link WS02006113WS02006111 (38)
  Link YS02001619YS02001622 (36)
  Link YS02163301YS02001633 (35)
  Link YS02001629YS02163301 (35)
  Link YS02163601YS02164001 (35)
  
  
  *************************
  Routing Time Step Summary
  *************************
  Minimum Time Step           :     0.50 sec
  Average Time Step           :     0.83 sec
  Maximum Time Step           :     5.00 sec
  Percent in Steady State     :    -0.00
  Average Iterations per Step :     4.71
  Percent Not Converging      :    25.40
  
  
  ***************************
  Subcatchment Runoff Summary
  ***************************
  
  ------------------------------------------------------------------------------------------------------------------------------
                            Total      Total      Total      Total     Imperv       Perv      Total       Total     Peak  Runoff
                           Precip      Runon       Evap      Infil     Runoff     Runoff     Runoff      Runoff   Runoff   Coeff
  Subcatchment                 mm         mm         mm         mm         mm         mm         mm    10^6 ltr      LPS
  ------------------------------------------------------------------------------------------------------------------------------
  sub0                      10.63       0.00       0.00       0.74       8.62       0.00       8.62        0.01     1.33   0.811
  sub1                      10.63       0.00       0.00       1.17       8.20       0.00       8.20        0.05     9.09   0.772
  sub2                      10.63       0.00       0.00       3.93       5.79       0.00       5.79        0.05     8.42   0.544
  sub3                      10.63       0.00       0.00       3.93       5.75       0.00       5.75        0.13    19.27   0.541
  sub4                      10.63       0.00       0.00       1.17       8.05       0.00       8.05        0.17    23.93   0.757
  sub5                      10.63       0.00       0.00       0.74       8.57       0.00       8.57        0.10    16.17   0.806
  sub7                      10.63       0.00       0.00       0.96       8.41       0.00       8.41        0.03     5.13   0.792
  sub8                      10.63       0.00       0.00       0.96       8.41       0.00       8.41        0.05     9.46   0.791
  sub9                      10.63       0.00       0.00       0.96       8.40       0.00       8.40        0.04     7.08   0.791
  sub10                     10.63       0.00       0.00       0.85       8.48       0.00       8.48        0.09    15.87   0.798
  sub11                     10.63       0.00       0.00       0.85       8.50       0.00       8.50        0.10    17.56   0.800
  sub12                     10.63       0.00       0.00       1.38       8.06       0.00       8.06        0.07    13.15   0.758
  sub14                     10.63       0.00       0.00       0.96       8.40       0.00       8.40        0.08    13.93   0.791
  sub15                     10.63       0.00       0.00       3.19       6.46       0.00       6.46        0.11    19.14   0.608
  sub16                     10.63       0.00       0.00       3.51       6.20       0.00       6.20        0.06    12.01   0.584
  sub17                     10.63       0.00       0.00       3.40       6.29       0.00       6.29        0.05     9.91   0.592
  sub22                     10.63       0.00       0.00       4.57       5.27       0.00       5.27        0.33    59.53   0.496
  sub23                     10.63       0.00       0.00       3.93       5.82       0.00       5.82        0.28    50.05   0.548
  sub60                     10.63       0.00       0.00       1.28       6.54       0.00       6.54        1.98   196.13   0.615
  sub61                     10.63       0.00       0.00       1.81       6.69       0.00       6.69        2.06   224.83   0.630
  sub62                     10.63       0.00       0.00       0.85       7.26       0.00       7.26        2.23   236.97   0.684
  sub63                     10.63       0.00       0.00       3.08       5.87       0.00       5.87        1.78   199.96   0.553
  sub64                     10.63       0.00       0.00       1.59       6.27       0.00       6.27        1.91   187.22   0.590
  sub65                     10.63       0.00       0.00       1.38       6.37       0.00       6.37        1.96   190.91   0.599
  sub66                     10.63       0.00       0.00       3.08       5.39       0.00       5.39        1.65   167.73   0.507
  sub67                     10.63       0.00       0.00       0.85       7.71       0.00       7.71        2.38   272.25   0.726
  sub68                     10.63       0.00       0.00       1.49       7.05       0.00       7.05        2.17   241.26   0.664
  sub69                     10.63       0.00       0.00       1.59       7.35       0.00       7.35        1.72   204.41   0.692
  sub70                     10.63       7.50       0.00       6.16       9.71       0.01       9.71        2.22   229.02   0.536
  sub71                     10.63       0.00       0.00       0.85       7.06       0.00       7.06        1.67   170.86   0.664
  sub72                     10.63       0.00       0.00       0.74       5.52       0.00       5.52        1.12    91.59   0.519
  sub73                     10.63       9.45       0.00       6.83      10.48       0.00      10.49        2.46   215.21   0.522
  sub74                     10.63       0.00       0.00       7.97       2.19       0.00       2.19        0.88   108.49   0.206
  
  
  ******************
  Node Depth Summary
  ******************
  
  ---------------------------------------------------------------------------------
                                 Average  Maximum  Maximum  Time of Max    Reported
                                   Depth    Depth      HGL   Occurrence   Max Depth
  Node                 Type       Meters   Meters   Meters  days hr:min      Meters
  ---------------------------------------------------------------------------------
  WS02001211           JUNCTION     0.63     0.76     5.60     0  04:11        0.76
  WS02001212           JUNCTION     0.36     0.47     5.53     0  04:11        0.47
  WS02001213           JUNCTION     0.60     0.71     5.47     0  04:11        0.71
  WS02003069           JUNCTION     0.43     0.54     5.12     0  03:09        0.54
  WS02003072           JUNCTION     0.49     0.60     4.97     0  03:10        0.60
  WS02003073           JUNCTION     0.30     0.37     4.43     0  03:11        0.37
  WS02003060           JUNCTION     0.38     0.47     5.41     0  03:09        0.47
  WS02003066           JUNCTION     0.24     0.31     5.86     0  02:19        0.31
  WS02003059           JUNCTION     0.66     0.76     5.45     0  04:12        0.76
  WS02003067           JUNCTION     0.58     0.71     6.03     0  02:19        0.71
  WS02004401           JUNCTION     0.69     0.88     6.88     0  02:16        0.88
  WS02004402           JUNCTION     0.72     0.91     6.87     0  02:16        0.91
  WS02004403           JUNCTION     0.74     0.92     6.85     0  02:16        0.92
  WS02004404           JUNCTION     0.81     0.99     6.84     0  02:16        0.99
  WS02004406           JUNCTION     0.82     0.98     6.81     0  02:17        0.98
  WS02004409           JUNCTION     0.51     0.69     6.46     0  02:18        0.69
  WS02004410           JUNCTION     0.53     0.71     6.43     0  02:19        0.71
  WS02004411           JUNCTION     0.54     0.71     6.39     0  02:19        0.71
  WS02004412           JUNCTION     0.56     0.72     6.36     0  02:19        0.72
  WS02004413           JUNCTION     0.71     0.88     6.35     0  02:19        0.88
  WS02004405           JUNCTION     0.81     0.98     6.83     0  02:16        0.98
  WS02006109           JUNCTION     0.77     1.01     7.63     0  02:11        1.01
  WS02006110           JUNCTION     0.76     0.95     7.54     0  02:12        0.95
  WS02006111           JUNCTION     0.22     0.30     7.00     0  02:12        0.30
  WS02006112           JUNCTION     0.86     1.16     7.05     0  02:12        1.11
  WS02006113           JUNCTION     0.35     0.47     7.37     0  02:13        0.47
  WS02006115           JUNCTION     0.58     0.79     6.93     0  02:15        0.79
  WS02006116           JUNCTION     0.66     0.87     6.91     0  02:16        0.87
  WS02006230           JUNCTION     0.75     1.08     7.82     0  02:11        1.07
  WS02006231           JUNCTION     0.50     0.77     7.90     0  02:11        0.75
  WS02006232           JUNCTION     0.63     0.90     7.94     0  02:10        0.88
  WS02006234           JUNCTION     0.55     0.87     8.03     0  02:10        0.83
  WS02006235           JUNCTION     0.58     0.89     8.05     0  02:10        0.87
  WS02006238           JUNCTION     0.61     0.91     8.06     0  02:10        0.90
  WS02006240           JUNCTION     0.51     0.83     8.12     0  02:10        0.83
  WS02006242           JUNCTION     0.56     0.87     8.14     0  02:10        0.87
  WS02006243           JUNCTION     0.44     0.76     8.18     0  02:10        0.72
  WS02006245           JUNCTION     0.41     0.70     8.19     0  02:12        0.69
  WS02006247           JUNCTION     0.43     1.19     8.69     0  02:10        0.71
  WS02006248           JUNCTION     0.37     0.67     8.25     0  02:10        0.62
  WS02006249           JUNCTION     0.40     0.64     8.24     0  02:10        0.63
  WS02006239           JUNCTION     0.57     0.89     8.10     0  02:11        0.89
  WS02006251           JUNCTION     0.39     0.68     8.35     0  02:11        0.66
  WS02006252           JUNCTION     0.35     0.59     8.83     0  03:06        0.59
  WS02006253           JUNCTION     0.42     0.71     8.35     0  02:11        0.69
  WS02006256           JUNCTION     1.06     1.21     8.15     0  02:11        1.21
  WS02004138           JUNCTION     0.14     0.20     7.45     0  00:00        0.19
  WS02004407           JUNCTION     0.23     0.31     6.62     0  02:17        0.31
  WS02006228           JUNCTION     0.77     1.07     7.72     0  02:12        1.06
  WS02006229           JUNCTION     0.75     1.06     7.76     0  02:10        1.06
  WS02006280           JUNCTION     0.07     0.16     8.43     0  01:50        0.16
  WS02006284           JUNCTION     0.37     0.50     8.90     0  01:50        0.50
  WS02006287           JUNCTION     0.10     0.23     9.19     0  01:50        0.23
  WSF200               JUNCTION     0.23     0.32     5.55     0  02:20        0.32
  HS02004901           JUNCTION     0.13     0.24    10.06     0  01:47        0.24
  HS02004881           JUNCTION     0.01     0.03     9.06     0  01:50        0.03
  HS02004876           JUNCTION     0.05     0.11     9.14     0  01:47        0.11
  HS02004870           JUNCTION     0.02     0.05     9.33     0  01:50        0.05
  HS02004862           JUNCTION     0.02     0.05     9.44     0  01:51        0.05
  HS02004856           JUNCTION     0.08     0.11     9.54     0  01:51        0.11
  HS02004852           JUNCTION     0.01     0.03     9.54     0  01:52        0.03
  HS02004848           JUNCTION     0.01     0.03     9.63     0  01:51        0.03
  HS02004842           JUNCTION     0.33     0.36     9.63     0  01:51        0.36
  HS02004837           JUNCTION     0.03     0.05     9.63     0  01:51        0.05
  HS02004830           JUNCTION     0.04     0.07     9.54     0  01:51        0.07
  HS02004824           JUNCTION     0.02     0.05     9.45     0  02:16        0.05
  HS02004817           JUNCTION     0.44     0.54     9.39     0  01:51        0.54
  HS02004807           JUNCTION     0.13     0.22     9.39     0  01:51        0.22
  HS02004802           JUNCTION     0.16     0.25     9.38     0  01:51        0.25
  HS02004799           JUNCTION     0.12     0.28     9.49     0  01:48        0.28
  HS02004792           JUNCTION     0.03     0.11     9.63     0  01:47        0.11
  HS02004788           JUNCTION     0.03     0.08     9.98     0  01:48        0.08
  HS02004785           JUNCTION     0.05     0.14    10.04     0  01:48        0.14
  HS02004777           JUNCTION     0.15     0.26    10.06     0  01:47        0.26
  HS02004770           JUNCTION     0.12     0.23    10.06     0  01:47        0.23
  HS02004480           JUNCTION     0.08     0.21     9.46     0  01:48        0.21
  HS02004479           JUNCTION     0.12     0.25     9.46     0  01:48        0.25
  HS02004478           JUNCTION     0.06     0.14     9.37     0  01:49        0.14
  YS02001745           JUNCTION     0.66     0.86     8.38     0  04:13        0.86
  YS02001748           JUNCTION     1.05     1.31     8.39     0  04:13        1.30
  YS02001751           JUNCTION     1.24     2.00     8.88     0  02:17        1.51
  YS02001754           JUNCTION     1.49     1.96     8.57     0  02:17        1.80
  YS02001762           JUNCTION     1.69     2.03     8.43     0  03:01        2.01
  YS02001765           JUNCTION     1.64     1.97     8.42     0  03:01        1.96
  YS02001767           JUNCTION     1.61     1.93     8.42     0  03:20        1.91
  YS02001770           JUNCTION     1.60     1.91     8.40     0  03:20        1.90
  YS02001774           JUNCTION     1.67     1.99     8.41     0  02:28        1.96
  YS02001779           JUNCTION     1.42     1.68     8.37     0  02:28        1.68
  YS02001882           JUNCTION     0.42     0.85     7.56     0  03:02        0.85
  YS02001884           JUNCTION     0.51     0.95     7.56     0  03:02        0.95
  YS02001759           JUNCTION     1.72     2.06     8.43     0  03:04        2.05
  YS02001887           JUNCTION     0.59     1.03     7.56     0  03:02        1.02
  YS02001890           JUNCTION     0.62     1.06     7.56     0  03:02        1.05
  YS02001898           JUNCTION     0.39     0.82     7.55     0  03:02        0.81
  YS02001901           JUNCTION     0.51     0.94     7.55     0  03:02        0.94
  YS02001904           JUNCTION     0.49     0.92     7.55     0  03:02        0.92
  YS02001907           JUNCTION     0.82     1.26     7.55     0  03:02        1.25
  YS02001910           JUNCTION     0.61     1.04     7.55     0  03:03        1.04
  YS02001915           JUNCTION     0.40     0.83     7.55     0  03:03        0.83
  YS02001918           JUNCTION     0.16     0.49     7.55     0  03:02        0.49
  YS02001619           JUNCTION     1.20     1.61     8.54     0  02:30        1.52
  YS02001629           JUNCTION     1.56     1.85     8.40     0  02:34        1.84
  YS02001641           JUNCTION     1.66     1.94     8.37     0  02:47        1.93
  YS02001644           JUNCTION     1.66     1.92     8.35     0  02:46        1.92
  YS02001652           JUNCTION     1.50     2.16     8.76     0  02:21        2.06
  YS02001655           JUNCTION     1.27     2.20     9.05     0  02:13        2.01
  YS02001920           JUNCTION     0.25     0.56     7.56     0  03:03        0.54
  YS02001923           JUNCTION     0.10     0.30     7.56     0  03:03        0.30
  YS02001926           JUNCTION     0.20     0.26     7.71     0  03:01        0.26
  YS02001929           JUNCTION     0.10     0.14     7.84     0  03:01        0.14
  YS02001658           JUNCTION     1.00     2.30     9.44     0  02:30        1.93
  YS02001661           JUNCTION     0.77     2.46     9.86     0  02:53        1.67
  YS02001664           JUNCTION     0.33     0.57     8.50     0  02:49        0.56
  YS02001622           JUNCTION     1.22     1.62     8.52     0  02:30        1.51
  YS02001633           JUNCTION     1.65     1.98     8.43     0  02:41        1.93
  YS02001649           JUNCTION     1.70     2.05     8.44     0  02:48        2.05
  YS02001757           JUNCTION     1.82     2.17     8.43     0  03:08        2.15
  YS02001895           JUNCTION     0.38     0.81     7.55     0  03:03        0.81
  YS02001625           JUNCTION     1.51     1.78     8.38     0  02:34        1.78
  YS02163301           JUNCTION     1.59     1.91     8.43     0  02:41        1.87
  YS02163601           JUNCTION     1.70     1.99     8.39     0  02:41        1.98
  YS02164001           JUNCTION     1.64     1.92     8.38     0  02:41        1.91
  YS02001647           JUNCTION     1.49     1.81     8.42     0  03:01        1.79
  YSB1154              JUNCTION     0.26     0.40     9.46     0  01:48        0.40
  YSB6556              JUNCTION     0.15     0.29     9.46     0  01:48        0.29
  YSB1174              JUNCTION     0.21     0.35     9.46     0  01:48        0.35
  YSB1171              JUNCTION     0.41     0.55     9.46     0  01:48        0.55
  YS02006553           JUNCTION     0.82     1.26     7.54     0  03:03        1.25
  YS02006561           JUNCTION     0.22     0.56     7.22     0  03:02        0.56
  YS02006556           JUNCTION     0.79     1.21     7.53     0  03:03        1.21
  YS02006558           JUNCTION     0.83     1.25     7.52     0  03:03        1.24
  YS02001783           JUNCTION     0.43     2.10     8.24     0  02:32        1.08
  YS02001784           JUNCTION     0.46     1.61     7.68     0  02:32        1.07
  YS02001786           JUNCTION     0.41     1.72     7.75     0  02:32        0.99
  YS02001788           JUNCTION     0.35     1.98     7.95     0  02:32        0.92
  YS02001790           JUNCTION     0.47     1.96     7.60     0  02:31        1.16
  YS02001791           JUNCTION     0.46     2.72     8.19     0  02:30        1.22
  YS02001793           JUNCTION     0.69     3.16     7.99     0  02:29        1.79
  WS02004139           JUNCTION     0.57     0.71     5.62     0  00:20        0.71
  WSC                  OUTFALL      0.29     0.36     1.03     0  03:11        0.36
  3                    OUTFALL      0.10     0.21     6.21     0  02:11        0.21
  4                    OUTFALL      0.02     0.14     7.14     0  02:11        0.13
  5                    OUTFALL      0.00     0.00     5.00     0  00:00        0.00
  JK-storage           STORAGE      2.77     5.80     6.60     0  02:31        5.80
  CC-storage           STORAGE      1.05     1.37     8.37     0  04:12        1.37
  XR-storage           STORAGE      6.96     7.72     5.72     0  02:29        7.72
  
  
  *******************
  Node Inflow Summary
  *******************
  
  -------------------------------------------------------------------------------------------------
                                  Maximum  Maximum                  Lateral       Total        Flow
                                  Lateral    Total  Time of Max      Inflow      Inflow     Balance
                                   Inflow   Inflow   Occurrence      Volume      Volume       Error
  Node                 Type           LPS      LPS  days hr:min    10^6 ltr    10^6 ltr     Percent
  -------------------------------------------------------------------------------------------------
  WS02001211           JUNCTION      7.35   387.67     0  00:20       0.207        6.13       0.554
  WS02001212           JUNCTION      0.00   387.66     0  00:20           0        6.09       0.333
  WS02001213           JUNCTION      0.00   387.65     0  00:20           0        6.07       0.378
  WS02003069           JUNCTION      0.32   815.33     0  03:09     0.00902        14.5       0.157
  WS02003072           JUNCTION      0.00   815.25     0  03:10           0        14.5       0.204
  WS02003073           JUNCTION      1.82   817.07     0  03:10      0.0514        14.5       0.217
  WS02003060           JUNCTION     16.53   815.07     0  03:08       0.466        14.5       0.150
  WS02003066           JUNCTION      0.00   575.66     0  02:19           0        8.04       0.034
  WS02003059           JUNCTION      0.00   387.72     0  00:20           0        6.05       0.557
  WS02003067           JUNCTION      0.00   575.64     0  02:19           0        8.04       0.079
  WS02004401           JUNCTION      0.00   579.41     0  02:14           0         8.2       0.187
  WS02004402           JUNCTION      0.00   579.05     0  02:15           0        8.19       0.182
  WS02004403           JUNCTION      0.00   579.22     0  02:16           0        8.17       0.171
  WS02004404           JUNCTION      0.16   578.24     0  02:16     0.00457        8.16       0.135
  WS02004406           JUNCTION      0.00   579.11     0  02:16           0        8.14       0.330
  WS02004409           JUNCTION      0.00   577.77     0  02:17           0        8.11       0.106
  WS02004410           JUNCTION      0.00   576.65     0  02:17           0         8.1       0.128
  WS02004411           JUNCTION      0.00   576.11     0  02:18           0        8.09       0.139
  WS02004412           JUNCTION      0.00   575.82     0  02:18           0        8.08       0.162
  WS02004413           JUNCTION      0.00   575.68     0  02:19           0        8.06       0.256
  WS02004405           JUNCTION      0.04   578.21     0  02:15     0.00107        8.15       0.202
  WS02006109           JUNCTION      1.23   576.04     0  02:11      0.0347        8.23       0.190
  WS02006110           JUNCTION      0.00   576.06     0  02:11           0        8.22       0.172
  WS02006111           JUNCTION      0.00   601.33     0  02:11           0         8.2       0.031
  WS02006112           JUNCTION      9.91   590.25     0  02:12       0.054        8.25       0.280
  WS02006113           JUNCTION      0.00   576.76     0  02:11           0         8.2       0.066
  WS02006115           JUNCTION      0.00   606.73     0  02:12           0        8.23       0.150
  WS02006116           JUNCTION      0.00   582.81     0  02:14           0        8.21       0.150
  WS02006230           JUNCTION     10.28   401.44     0  06:59        0.29        6.58       0.166
  WS02006231           JUNCTION      0.00   391.61     0  06:58           0        6.29       0.049
  WS02006232           JUNCTION      0.00   391.61     0  06:58           0         6.3       0.173
  WS02006234           JUNCTION      0.00   392.03     0  06:58           0        6.31       0.035
  WS02006235           JUNCTION      0.00   392.04     0  06:58           0        6.36       0.120
  WS02006238           JUNCTION      0.00   327.99     0  03:10           0        4.33       0.081
  WS02006240           JUNCTION      0.00   329.73     0  06:50           0        4.29       0.080
  WS02006242           JUNCTION      0.00   335.89     0  06:51           0        4.28       0.091
  WS02006243           JUNCTION      0.00   340.66     0  06:51           0        4.25      -0.317
  WS02006245           JUNCTION      0.00   342.80     0  06:51           0        4.25       0.097
  WS02006247           JUNCTION      0.00   349.30     0  05:51           0        4.25       0.005
  WS02006248           JUNCTION      0.00   355.01     0  05:51           0        4.25      -0.057
  WS02006249           JUNCTION      0.00   437.80     0  03:01           0        4.68       0.079
  WS02006239           JUNCTION      0.00   327.76     0  03:10           0        4.31       0.080
  WS02006251           JUNCTION      0.08   450.36     0  02:11     0.00217         4.7      -0.003
  WS02006252           JUNCTION      0.00   400.00     0  03:00           0        4.37       0.002
  WS02006253           JUNCTION      1.33    51.15     0  01:49     0.00698       0.329      -0.058
  WS02006256           JUNCTION      0.00   600.00     0  02:10           0        6.01       0.047
  WS02004138           JUNCTION      0.00   380.00     0  00:00           0        5.96       0.099
  WS02004407           JUNCTION      0.00   578.08     0  02:17           0        8.11       0.051
  WS02006228           JUNCTION      0.00   574.80     0  02:11           0        8.21       0.125
  WS02006229           JUNCTION      0.00   575.77     0  02:11           0        8.22       0.121
  WS02006280           JUNCTION      0.00   250.77     0  01:50           0        1.65       0.004
  WS02006284           JUNCTION      0.10   250.79     0  01:50      0.0027        1.65       0.062
  WS02006287           JUNCTION      0.00   250.70     0  01:50           0        1.65       0.044
  WSF200               JUNCTION      0.00   575.68     0  02:19           0        8.03       0.027
  HS02004901           JUNCTION     12.01    12.01     0  01:45      0.0649      0.0651       2.778
  HS02004881           JUNCTION      5.13    49.92     0  01:49      0.0283       0.303       0.106
  HS02004876           JUNCTION      9.09    44.88     0  01:50      0.0545       0.275       0.197
  HS02004870           JUNCTION      9.46    35.90     0  01:50      0.0537       0.221       0.049
  HS02004862           JUNCTION      8.62    26.77     0  01:51      0.0595       0.167       0.102
  HS02004856           JUNCTION      7.08    18.19     0  01:50      0.0404       0.109       1.338
  HS02004852           JUNCTION      0.00    11.37     0  01:51           0      0.0688       0.079
  HS02004848           JUNCTION     19.27    19.27     0  02:15       0.129       0.129       0.035
  HS02004842           JUNCTION      0.00     7.96     0  02:16           0      0.0736      21.474
  HS02004837           JUNCTION     22.22    28.76     0  01:50       0.273       0.333       0.244
  HS02004830           JUNCTION      0.15    28.90     0  01:51     0.00423       0.323       0.383
  HS02004824           JUNCTION     23.98    52.78     0  02:16       0.169       0.492       0.110
  HS02004817           JUNCTION      0.60    53.38     0  02:16      0.0169       0.508       3.394
  HS02004807           JUNCTION     17.56    68.44     0  02:16      0.0987        0.59       0.739
  HS02004802           JUNCTION      0.00    68.45     0  02:16           0       0.587       0.678
  HS02004799           JUNCTION     13.93   155.61     0  01:47      0.0799       0.915       0.288
  HS02004792           JUNCTION     59.81   141.74     0  01:47       0.341       0.835       0.049
  HS02004788           JUNCTION     20.81    82.40     0  01:48       0.158       0.496       0.079
  HS02004785           JUNCTION      0.15    61.69     0  01:47     0.00423       0.339       0.145
  HS02004777           JUNCTION      0.03    61.69     0  01:46    0.000846        0.34       1.552
  HS02004770           JUNCTION     50.05    61.90     0  01:46       0.278       0.341       0.915
  HS02004480           JUNCTION      0.00   184.53     0  01:48           0        1.08       0.105
  HS02004479           JUNCTION      0.00    29.01     0  01:50           0       0.176       0.418
  HS02004478           JUNCTION      0.00   250.68     0  01:49           0        1.65       0.021
  YS02001745           JUNCTION    196.14   310.74     0  02:37        1.98        1.99       0.548
  YS02001748           JUNCTION      0.04   465.34     0  02:37     0.00127        1.99       1.141
  YS02001751           JUNCTION      0.01   432.08     0  02:16     0.00031        1.95       1.215
  YS02001754           JUNCTION      0.26   223.85     0  02:23     0.00733        1.93       1.284
  YS02001762           JUNCTION      0.00   245.91     0  02:40           0        1.95       1.092
  YS02001765           JUNCTION      0.00   241.87     0  02:40           0        1.95       1.254
  YS02001767           JUNCTION      0.54   238.61     0  02:40      0.0151        1.98       1.833
  YS02001770           JUNCTION    237.12   237.12     0  03:00        2.24        2.25       1.419
  YS02001774           JUNCTION      0.00    92.22     0  03:25           0       0.272      10.200
  YS02001779           JUNCTION      0.01    92.11     0  03:25    0.000141       0.235       6.884
  YS02001882           JUNCTION      0.00    22.05     0  02:34           0      0.0188      12.292
  YS02001884           JUNCTION      0.00    38.37     0  02:34           0      0.0549      11.622
  YS02001759           JUNCTION    224.87   461.23     0  02:40        2.06        3.98       0.572
  YS02001887           JUNCTION    272.70   293.47     0  02:34        2.39        2.42       0.334
  YS02001890           JUNCTION      0.00   284.69     0  02:35           0        2.38       0.370
  YS02001898           JUNCTION      0.00   284.66     0  02:35           0        2.36       0.118
  YS02001901           JUNCTION      0.00   273.89     0  02:35           0        2.36       0.274
  YS02001904           JUNCTION      0.00   276.11     0  02:19           0        2.36       0.251
  YS02001907           JUNCTION      0.00   527.77     0  03:06           0        5.21       0.445
  YS02001910           JUNCTION      0.00   268.86     0  03:09           0        2.86       0.397
  YS02001915           JUNCTION    170.88   265.98     0  03:04        1.67        2.86       0.194
  YS02001918           JUNCTION      0.00   115.35     0  03:15           0         1.2       0.142
  YS02001619           JUNCTION    167.73   167.73     0  03:01        1.65        1.65       0.737
  YS02001629           JUNCTION      0.00   230.47     0  02:19           0        1.57       1.865
  YS02001641           JUNCTION      0.00   366.87     0  02:38           0        3.43       0.626
  YS02001644           JUNCTION    187.26   725.61     0  03:22        1.91        6.91       0.381
  YS02001652           JUNCTION      0.00   262.81     0  02:29           0        1.73       1.330
  YS02001655           JUNCTION      0.15   440.60     0  02:13     0.00434        1.76       1.299
  YS02001920           JUNCTION      2.87   114.03     0  03:04      0.0809         1.2       0.228
  YS02001923           JUNCTION      0.04    91.49     0  03:01     0.00106        1.12       0.043
  YS02001926           JUNCTION      0.05    91.60     0  03:01     0.00147        1.12       0.282
  YS02001929           JUNCTION     91.59    91.59     0  03:01        1.12        1.12       0.041
  YS02001658           JUNCTION      0.00   610.54     0  02:30           0        1.82       1.189
  YS02001661           JUNCTION      0.00   601.80     0  02:49           0        2.56      -0.066
  YS02001664           JUNCTION    199.96   380.89     0  02:48        1.78        2.52       0.268
  YS02001622           JUNCTION      0.00   180.07     0  02:20           0        1.64       1.972
  YS02001633           JUNCTION    191.11   358.22     0  02:37        1.96        3.49       0.932
  YS02001649           JUNCTION      0.00   706.22     0  02:47           0        4.81       0.773
  YS02001757           JUNCTION      0.00  1320.37     0  02:47           0        9.03       1.029
  YS02001895           JUNCTION      0.00   286.28     0  02:35           0        2.37       0.200
  YS02001625           JUNCTION      0.00   230.69     0  02:19           0        1.61       2.475
  YS02163301           JUNCTION      0.00   196.10     0  02:27           0        1.55       1.588
  YS02163601           JUNCTION      0.11   359.29     0  02:37      0.0031        3.45       0.879
  YS02164001           JUNCTION      0.00   361.50     0  02:38           0        3.43       0.598
  YS02001647           JUNCTION      0.00   537.83     0  02:38           0        3.87       0.729
  YSB1154              JUNCTION     16.17    16.17     0  01:48       0.097      0.0978       1.500
  YSB6556              JUNCTION      0.00    16.24     0  01:49           0      0.0986       1.284
  YSB1174              JUNCTION     13.15    13.15     0  01:45      0.0704      0.0709       1.844
  YSB1171              JUNCTION      0.00    29.32     0  01:48           0       0.175       3.755
  YS02006553           JUNCTION      0.00   528.32     0  03:07           0         5.2       0.295
  YS02006561           JUNCTION      0.00   754.30     0  03:02           0        7.33       0.005
  YS02006556           JUNCTION      0.00   528.04     0  03:06           0         5.2       0.212
  YS02006558           JUNCTION    242.14   755.70     0  03:03        2.19        7.37       0.073
  YS02001783           JUNCTION      0.00   754.13     0  03:03           0        7.33       0.028
  YS02001784           JUNCTION      1.06   755.35     0  03:03      0.0299        7.36       0.046
  YS02001786           JUNCTION      0.06   755.23     0  03:03     0.00159        7.36       0.041
  YS02001788           JUNCTION      0.07   755.38     0  03:03       0.002        7.36       0.024
  YS02001790           JUNCTION      0.15   755.44     0  03:03     0.00437        7.36       0.024
  YS02001791           JUNCTION      0.00   755.59     0  03:03           0        7.36       0.006
  YS02001793           JUNCTION      0.00   755.67     0  03:03           0        7.36      -0.019
  WS02004139           JUNCTION      0.32   393.28     0  00:00     0.00905        5.96       0.662
  WSC                  OUTFALL       0.00   817.06     0  03:11           0        14.5       0.000
  3                    OUTFALL       0.00   528.60     0  02:11           0        3.93       0.000
  4                    OUTFALL       0.00   177.57     0  02:11           0       0.427       0.000
  5                    OUTFALL       0.00     0.00     0  00:00           0           0       0.000 ltr
  JK-storage           STORAGE       0.00   942.38     0  02:29           0        7.51      -4.933
  CC-storage           STORAGE       0.00  1320.39     0  02:47           0        8.07       0.790
  XR-storage           STORAGE     519.52   519.52     0  03:01        8.98        9.58      -0.002
  
  
  **********************
  Node Surcharge Summary
  **********************
  
  Surcharging occurs when water rises above the top of the highest conduit.
  ---------------------------------------------------------------------
                                               Max. Height   Min. Depth
                                   Hours       Above Crown    Below Rim
  Node                 Type      Surcharged         Meters       Meters
  ---------------------------------------------------------------------
  WS02006109           JUNCTION        2.64          0.192        1.628
  WS02006110           JUNCTION        0.52          0.040        1.810
  WS02006112           JUNCTION        0.96          0.164        1.516
  WS02006231           JUNCTION        0.17          0.062        1.468
  WS02006232           JUNCTION        2.55          0.196        1.284
  WS02006234           JUNCTION        0.29          0.151        1.089
  WS02006235           JUNCTION        1.44          0.178        1.112
  WS02006238           JUNCTION        2.00          0.194        1.236
  WS02006240           JUNCTION        0.19          0.120        1.270
  WS02006242           JUNCTION        1.32          0.143        0.677
  WS02006243           JUNCTION        0.03          0.046        0.724
  WS02006247           JUNCTION        0.01          0.482        0.278
  WS02006239           JUNCTION        0.53          0.150        1.140
  WS02006252           JUNCTION        2.16          0.193        0.907
  WS02006228           JUNCTION        2.50          0.237        1.963
  YS02001748           JUNCTION        5.12          0.232        0.958
  YS02001751           JUNCTION        5.38          1.003        0.197
  YS02001754           JUNCTION        5.69          0.913        0.237
  YS02001762           JUNCTION        5.94          1.026        0.124
  YS02001765           JUNCTION        5.91          0.971        0.129
  YS02001767           JUNCTION        5.90          0.927        0.103
  YS02001770           JUNCTION        5.87          0.877        0.043
  YS02001774           JUNCTION        5.93          0.985        0.065
  YS02001779           JUNCTION        5.66          0.680        0.000
  YS02001759           JUNCTION        5.97          1.064        0.146
  YS02001890           JUNCTION        0.04          0.007        0.753
  YS02001907           JUNCTION        1.21          0.252        0.698
  YS02001910           JUNCTION        0.21          0.042        1.058
  YS02001619           JUNCTION        5.35          0.610        0.000
  YS02001629           JUNCTION        5.38          0.470        0.000
  YS02001641           JUNCTION        5.92          0.936        0.164
  YS02001644           JUNCTION        5.93          0.920        0.000
  YS02001652           JUNCTION        5.74          1.130        0.000
  YS02001655           JUNCTION        5.41          1.200        0.000
  YS02001658           JUNCTION        5.15          1.300        0.000
  YS02001661           JUNCTION        0.19          1.390        0.000
  YS02001622           JUNCTION        5.45          0.620        0.000
  YS02001633           JUNCTION        5.91          0.957        0.103
  YS02001649           JUNCTION        5.94          1.050        0.000
  YS02001757           JUNCTION        6.03          1.167        0.043
  YS02001625           JUNCTION        5.79          0.780        0.000
  YS02163301           JUNCTION        5.88          0.908        0.122
  YS02163601           JUNCTION        5.95          0.994        0.086
  YS02164001           JUNCTION        5.92          0.921        0.179
  YS02001647           JUNCTION        5.76          0.809        0.091
  YS02006553           JUNCTION        1.29          0.258        0.932
  YS02006556           JUNCTION        0.70          0.174        1.176
  YS02006558           JUNCTION        0.62          0.155        1.245
  YS02001783           JUNCTION        0.88          1.300        0.300
  YS02001784           JUNCTION        0.95          0.809        0.681
  YS02001786           JUNCTION        0.89          0.917        0.513
  YS02001788           JUNCTION        0.87          1.177        0.303
  YS02001790           JUNCTION        1.39          1.157        0.000
  YS02001791           JUNCTION        1.84          1.920        0.000
  YS02001793           JUNCTION        2.52          2.162        0.438
  
  
  *********************
  Node Flooding Summary
  *********************
  
  Flooding refers to all water that overflows a node, whether it ponds or not.
  --------------------------------------------------------------------------
                                                             Total   Maximum
                                 Maximum   Time of Max       Flood    Ponded
                        Hours       Rate    Occurrence      Volume     Depth
  Node                 Flooded       LPS   days hr:min    10^6 ltr    Meters
  --------------------------------------------------------------------------
  YS02001779              2.16     92.09      0  03:25       0.210     0.000
  YS02001619              0.01     20.13      0  02:30       0.000     0.000
  YS02001629              0.01     28.79      0  02:35       0.000     0.000
  YS02001644              3.11    725.52      0  03:23       4.612     0.000
  YS02001652              0.01     73.85      0  02:23       0.000     0.000
  YS02001655              0.01    326.47      0  02:21       0.002     0.000
  YS02001658              0.01    162.59      0  02:30       0.000     0.000
  YS02001661              0.01    164.19      0  02:53       0.001     0.000
  YS02001622              0.01     34.44      0  02:33       0.000     0.000
  YS02001649              0.06     44.82      0  02:53       0.003     0.000
  YS02001625              0.30     16.13      0  02:41       0.004     0.000
  YS02001790              0.01    247.85      0  02:31       0.000     0.000
  YS02001791              0.01    208.11      0  02:30       0.000     0.000
  JK-storage              1.17    755.60      0  03:03       1.893     0.000
  XR-storage              4.78    391.00      0  02:40       2.725     0.000
  
  
  **********************
  Storage Volume Summary
  **********************
  
  --------------------------------------------------------------------------------------------------
                         Average     Avg  Evap Exfil       Maximum     Max    Time of Max    Maximum
                          Volume    Pcnt  Pcnt  Pcnt        Volume    Pcnt     Occurrence    Outflow
  Storage Unit           1000 m3    Full  Loss  Loss       1000 m3    Full    days hr:min        LPS
  --------------------------------------------------------------------------------------------------
  JK-storage               0.139      48     0     0         0.291     100       0  02:31     600.00
  CC-storage               2.922      19     0     0         3.829      24       0  04:12     400.00
  XR-storage               0.835      90     0     0         0.926     100       0  02:29     380.00
  
  
  ***********************
  Outfall Loading Summary
  ***********************
  
  -----------------------------------------------------------
                         Flow       Avg       Max       Total
                         Freq      Flow      Flow      Volume
  Outfall Node           Pcnt       LPS       LPS    10^6 ltr
  -----------------------------------------------------------
  WSC                   99.99    562.90    817.06      14.469
  3                     84.34    228.32    528.60       3.934
  4                     39.31     48.51    177.57       0.427
  5                      0.00      0.00      0.00       0.000
  -----------------------------------------------------------
  System                55.91    839.73   1427.06      18.831
  
  
  ********************
  Link Flow Summary
  ********************
  
  -----------------------------------------------------------------------------
                                 Maximum  Time of Max   Maximum    Max/    Max/
                                  |Flow|   Occurrence   |Veloc|    Full    Full
  Link                 Type          LPS  days hr:min     m/sec    Flow   Depth
  -----------------------------------------------------------------------------
  WS02003066WSF200     CONDUIT    575.68     0  02:19      2.79    0.10    0.24
  WS02006287WS02006284 CONDUIT    250.70     0  01:50      1.73    0.12    0.24
  WS02006284WS02006280 CONDUIT    250.77     0  01:50      1.97    0.11    0.22
  WS02006280WS02006229 CONDUIT    250.78     0  01:50      3.17    0.05    0.16
  WS02006229WS02006228 CONDUIT    574.80     0  02:11      1.14    1.90    1.00
  WS02006256WS02006235 CONDUIT    166.25     0  00:01      2.58    1.76    1.00
  WS02006253WS02006251 CONDUIT     78.54     0  02:11      0.51    0.24    0.97
  WS02006252WS02006251 CONDUIT    400.68     0  06:50      3.19    1.47    1.00
  WS02006251WS02006249 CONDUIT    437.80     0  03:01      1.21    1.26    0.94
  WS02006249WS02006248 CONDUIT    355.01     0  05:51      1.16    1.94    0.91
  WS02006248WS02006247 CONDUIT    349.30     0  05:51      1.12    0.76    0.96
  WS02006247WS02006245 CONDUIT    342.80     0  06:51      1.08    2.72    0.99
  WS02006245WS02006243 CONDUIT    340.66     0  06:51      1.09    1.01    1.00
  WS02006243WS02006242 CONDUIT    335.89     0  06:51      0.97    0.72    1.00
  WS02006242WS02006240 CONDUIT    329.73     0  06:50      0.93    1.31    1.00
  WS02006240WS02006239 CONDUIT    327.76     0  03:10      0.97    1.03    1.00
  WS02006239WS02006238 CONDUIT    327.99     0  03:10      0.90    1.05    1.00
  WS02006238WS02006235 CONDUIT    328.04     0  03:10      1.25    0.73    1.00
  WS02006235WS02006234 CONDUIT    392.03     0  06:58      1.05    4.14    1.00
  WS02006234WS02006232 CONDUIT    391.61     0  06:58      1.13    0.79    1.00
  WS02006232WS02006231 CONDUIT    391.61     0  06:58      1.06    0.82    1.00
  WS02006231WS02006230 CONDUIT    391.16     0  06:59      1.36    5.93    1.00
  WS02006230WS02006229 CONDUIT    400.94     0  06:59      1.04    8.92    1.00
  WS02006228WS02006109 CONDUIT    574.81     0  02:11      1.14    2.51    1.00
  WS02006116WS02004401 CONDUIT    579.41     0  02:14      0.80    0.80    0.87
  WS02006115WS02006116 CONDUIT    582.81     0  02:14      0.88    0.75    0.80
  WS02006113WS02006111 CONDUIT    601.33     0  02:11      2.52    0.72    0.48
  WS02006112WS02006115 CONDUIT    606.73     0  02:12      0.83    0.36    0.89
  WS02006111WS02006112 CONDUIT    582.00     0  02:12      1.60    0.28    0.68
  WS02006110WS02006113 CONDUIT    576.76     0  02:11      1.35    0.52    0.80
  WS02006109WS02006110 CONDUIT    576.06     0  02:11      1.15    1.11    1.00
  WS02004411WS02004412 CONDUIT    575.82     0  02:18      0.96    0.82    0.72
  WS02004401WS02004402 CONDUIT    579.05     0  02:15      0.78    0.70    0.90
  WS02004413WS02003067 CONDUIT    575.64     0  02:19      1.15    0.25    0.61
  WS02004412WS02004413 CONDUIT    575.68     0  02:19      0.86    0.39    0.80
  WS02004410WS02004411 CONDUIT    576.11     0  02:18      0.97    0.79    0.71
  WS02004409WS02004410 CONDUIT    576.65     0  02:17      0.99    0.75    0.70
  WS02004407WS02004409 CONDUIT    577.77     0  02:17      1.48    0.20    0.50
  WS02004406WS02004407 CONDUIT    578.08     0  02:17      1.08    0.26    0.64
  WS02004405WS02004406 CONDUIT    579.11     0  02:16      0.74    1.14    0.98
  WS02004404WS02004405 CONDUIT    578.17     0  02:15      0.84    5.66    0.99
  WS02004403WS02004404 CONDUIT    578.08     0  02:16      0.75    0.42    0.96
  WS02004402WS02004403 CONDUIT    579.22     0  02:16      0.77    0.83    0.91
  WS02004139WS02001211 CONDUIT    380.32     0  00:20      0.90    0.48    0.57
  WS02004138WS02004139 CONDUIT    392.96     0  00:00      3.64    0.08    0.42
  WS02003067WS02003066 CONDUIT    575.66     0  02:19      1.25    0.18    0.43
  WS02001213WS02003059 CONDUIT    387.72     0  00:20      0.90    0.64    0.73
  WS02001212WS02001213 CONDUIT    387.65     0  00:20      1.32    0.60    0.43
  WS02001211WS02001212 CONDUIT    387.66     0  00:20      0.78    0.30    0.61
  WS02003072WS02003073 CONDUIT    815.25     0  03:10      1.64    1.76    0.45
  WS02003069WS02003072 CONDUIT    815.25     0  03:10      1.55    0.39    0.47
  WS02003060WS02003069 CONDUIT    815.01     0  03:09      1.80    0.32    0.42
  WS02003059WS02003060 CONDUIT    387.68     0  00:20      0.95    0.25    0.61
  HS02004901HS02004770 CONDUIT     11.86     0  01:47      0.05    0.04    0.34
  HS02004876HS02004881 CONDUIT     44.96     0  01:50      0.68    0.48    0.09
  HS02004870HS02004876 CONDUIT     35.89     0  01:50      0.47    0.02    0.11
  HS02004842HS02004848 CONDUIT      7.96     0  02:16      0.04    0.00    0.28
  HS02004837HS02004842 CONDUIT      8.06     0  02:20      0.41    0.00    0.30
  HS02004830HS02004837 CONDUIT     28.75     0  01:51      0.48    0.03    0.09
  HS02004824HS02004830 CONDUIT     28.90     0  01:52      0.51    0.04    0.08
  HS02004817HS02004824 CONDUIT     52.78     0  02:16      0.18    0.02    0.42
  HS02004770HS02004777 CONDUIT     61.66     0  01:46      0.25    0.11    0.35
  HS02004799HS02004480 CONDUIT    155.54     0  01:47      0.65    0.20    0.34
  HS02004792HS02004799 CONDUIT    141.71     0  01:47      0.74    0.09    0.27
  HS02004788HS02004792 CONDUIT     82.36     0  01:48      0.88    0.05    0.13
  HS02004785HS02004788 CONDUIT     61.65     0  01:48      0.55    0.46    0.16
  HS02004777HS02004785 CONDUIT     61.54     0  01:47      0.30    0.08    0.29
  HS02004480HS02004478 CONDUIT    184.33     0  01:49      1.04    0.78    0.25
  HS02004479HS02004480 CONDUIT     29.23     0  01:51      0.28    0.03    0.33
  HS02004862HS02004870 CONDUIT     26.75     0  01:51      0.52    0.03    0.07
  HS02004848HS02004852 CONDUIT     11.37     0  01:51      0.35    0.01    0.05
  HS02004856HS02004862 CONDUIT     18.17     0  01:51      0.38    0.02    0.07
  HS02004852HS02004856 CONDUIT     11.35     0  01:52      0.16    0.01    0.10
  HS02004802HS02004478 CONDUIT     68.53     0  02:17      0.36    0.06    0.28
  HS02004478WS02006287 CONDUIT    250.70     0  01:50      1.43    0.07    0.19
  HS02004817HS02004807 CONDUIT     53.46     0  02:17      0.14    0.03    0.54
  HS02004807HS02004802 CONDUIT     68.45     0  02:16      0.30    0.13    0.33
  YS02001759YS02001757 CONDUIT    464.00     0  02:40      0.59    0.33    1.00
  YS02001762YS02001759 CONDUIT    249.77     0  02:40      0.32    0.29    1.00
  YS02001765YS02001762 CONDUIT    245.91     0  02:40      0.31    0.23    1.00
  YS02001770YS02001767 CONDUIT    238.08     0  02:40      0.38    0.94    1.00
  YS02001774YS02001770 CONDUIT     92.22     0  03:25      0.24    0.06    1.00
  YS02001779YS02001774 CONDUIT     92.11     0  03:25      0.12    0.05    1.00
  YS02001649YS02001757 CONDUIT    706.61     0  02:47      0.90    0.43    1.00
  YS02001767YS02001765 CONDUIT    241.87     0  02:40      0.35    0.30    1.00
  YS02006561YS02001783 CONDUIT    754.13     0  03:03      2.16    0.39    0.85
  YS02001783YS02001784 CONDUIT    754.29     0  03:03      1.62    1.04    1.00
  YS02001784YS02001785 CONDUIT    755.18     0  03:03      1.73    1.76    1.00
  YS02001788YS02001790 CONDUIT    755.28     0  03:03      2.27    0.56    1.00
  YS02001790YS02001791 CONDUIT    755.59     0  03:03      2.76    0.82    1.00
  YS02001791YS02001793 CONDUIT    755.67     0  03:03      5.59    0.32    1.00
  YS02001910YS02001907 CONDUIT    271.58     0  03:18      0.49    0.15    1.00
  YS02001786YS02001788 CONDUIT    755.31     0  03:03      2.18    1.46    1.00
  YS02001915YS02001910 CONDUIT    268.86     0  03:09      0.56    0.13    0.92
  YS02001918YS02001915 CONDUIT    112.72     0  03:15      0.44    0.06    0.66
  YS02001923YS02001920 CONDUIT    111.16     0  03:04      0.64    0.05    0.42
  YS02001926YS02001923 CONDUIT     91.45     0  03:01      0.74    0.13    0.21
  YS02001929YS02001926 CONDUIT     91.54     0  03:01      0.81    0.04    0.20
  YS02001920YS02001918 CONDUIT    115.35     0  03:15      0.63    0.11    0.52
  YS02001629YS02163301 CONDUIT    196.10     0  02:27      0.25    0.24    1.00
  YS02001619YS02001622 CONDUIT    180.07     0  02:20      0.65    0.27    1.00
  YS02001622YS02001625 CONDUIT    230.69     0  02:19      0.32    0.12    1.00
  YS02001625YS02001629 CONDUIT    230.47     0  02:19      0.30    0.11    1.00
  YS02163301YS02001633 CONDUIT    195.83     0  02:27      0.25    0.18    1.00
  YS02163601YS02164001 CONDUIT    361.50     0  02:38      0.46    0.32    1.00
  YS02164001YS02001641 CONDUIT    366.87     0  02:38      0.47    0.50    1.00
  YS02001641YS02001644 CONDUIT    369.67     0  02:38      0.47    1.20    1.00
  YS02001647YS02001649 CONDUIT    539.58     0  02:38      0.69    0.28    1.00
  YS02006553YS02006556 CONDUIT    528.04     0  03:06      0.67    0.45    1.00
  YS02006556YS02006558 CONDUIT    529.16     0  03:06      0.67    0.42    1.00
  YSB6556YSB1171       CONDUIT     16.50     0  01:50      0.07    0.02    0.60
  YS02001907YS02006553 CONDUIT    528.32     0  03:07      0.59    0.62    1.00
  YS02006558YS02006561 CONDUIT    754.30     0  03:02      3.17    1.67    0.97
  YS02001633YS02163601 CONDUIT    359.18     0  02:37      0.46    0.38    1.00
  YS02001644YS02001647 CONDUIT    537.83     0  02:38      0.68    0.32    1.00
  YS02001745YS02001748 CONDUIT    465.29     0  02:37      1.51    0.18    0.93
  YS02001748YS02001751 CONDUIT    432.06     0  02:16      1.12    0.22    1.00
  YS02001751YS02001754 CONDUIT    223.59     0  02:23      0.97    0.11    1.00
  YS02001754YS02001757 CONDUIT    223.54     0  02:23      0.33    0.09    1.00
  YS02001882YS02001884 CONDUIT     26.80     0  02:34      0.12    0.03    0.87
  YS02001884YS02001887 CONDUIT     38.37     0  02:34      0.09    0.05    0.96
  YS02001890YS02001895 CONDUIT    286.28     0  02:35      0.45    0.13    0.90
  YS02001895YS02001898 CONDUIT    284.66     0  02:35      0.56    0.49    0.80
  YS02001898YS02001901 CONDUIT    273.89     0  02:35      0.49    0.18    0.88
  YS02001901YS02001904 CONDUIT    276.11     0  02:19      0.46    0.43    0.93
  YS02001904YS02001907 CONDUIT    284.72     0  02:26      0.40    0.10    0.96
  YS02001887YS02001890 CONDUIT    284.69     0  02:35      0.40    0.49    1.00
  YS02001652YS02001649 CONDUIT    263.18     0  02:29      0.58    0.13    1.00
  YS02001655YS02001652 CONDUIT    262.81     0  02:29      1.05    0.13    1.00
  YS02001658YS02001655 CONDUIT    440.45     0  02:13      1.29    0.19    1.00
  YS02001661YS02001658 CONDUIT    610.54     0  02:30      1.59    0.24    1.00
  YS02001664YS02001661 CONDUIT    601.80     0  02:49      1.45    0.19    0.71
  YSB1154YSB6556       CONDUIT     16.24     0  01:49      0.16    0.03    0.49
  YSB1174YSB1171       CONDUIT     13.24     0  01:45      0.06    0.02    0.61
  YSB1171HS02004479    CONDUIT     29.01     0  01:50      0.54    0.02    0.47
  HS02004881HS02006253 CONDUIT     49.92     0  01:50      1.81    0.01    0.28
  YS02001793JiankangQianchi CONDUIT    942.38     0  02:29     13.02    0.07    1.00
  YS02001757CaochengTiaoxuchi CONDUIT   1320.39     0  02:47      1.95    0.58    1.00
  WSF200WS02003060     CONDUIT    575.66     0  02:19      1.87    0.13    0.33
  1                    CONDUIT    817.06     0  03:11      3.15    0.28    0.36
  2                    CONDUIT    177.57     0  02:11      5.67    0.42    0.46
  3                    CONDUIT    528.60     0  02:11      9.88    0.84    0.71
  4                    CONDUIT      0.00     0  00:00      0.00    0.00    0.00
  CC-Pump-1            PUMP       200.00     0  02:50              1.00
  CC-Pump-2            PUMP       200.00     0  01:43              1.00
  JK-Pump-1            PUMP       300.00     0  00:00              1.00
  JK-Pump-2            PUMP       300.00     0  02:10              1.00
  XR-Pump-1            PUMP        95.00     0  00:00              1.00
  XR-Pump-2            PUMP        95.00     0  00:00              1.00
  XR-Pump-3            PUMP        95.00     0  00:00              1.00
  XR-Pump-4            PUMP        95.00     0  00:00              1.00
  
  
  ***************************
  Flow Classification Summary
  ***************************
  
  -------------------------------------------------------------------------------------
                      Adjusted    ---------- Fraction of Time in Flow Class ---------- 
                       /Actual         Up    Down  Sub   Sup   Up    Down  Norm  Inlet 
  Conduit               Length    Dry  Dry   Dry   Crit  Crit  Crit  Crit  Ltd   Ctrl  
  -------------------------------------------------------------------------------------
  WS02003066WSF200        1.00   0.05  0.02  0.00  0.00  0.94  0.00  0.00  0.63  0.00
  WS02006287WS02006284    1.00   0.04  0.01  0.00  0.57  0.38  0.00  0.00  0.70  0.00
  WS02006284WS02006280    1.00   0.04  0.00  0.00  0.00  0.00  0.00  0.96  0.00  0.00
  WS02006280WS02006229    1.00   0.04  0.00  0.00  0.00  0.00  0.00  0.96  0.00  0.00
  WS02006229WS02006228    1.00   0.00  0.00  0.00  0.99  0.00  0.00  0.01  0.00  0.00
  WS02006256WS02006235    1.00   0.00  0.00  0.00  1.00  0.00  0.00  0.00  0.00  0.00
  WS02006253WS02006251    1.00   0.03  0.01  0.00  0.96  0.00  0.00  0.00  0.00  0.00
  WS02006252WS02006251    1.00   0.07  0.00  0.00  0.00  0.00  0.93  0.00  0.00  0.00
  WS02006251WS02006249    1.00   0.00  0.00  0.00  1.00  0.00  0.00  0.00  0.29  0.00
  WS02006249WS02006248    1.00   0.00  0.02  0.00  0.84  0.00  0.14  0.00  0.00  0.00
  WS02006248WS02006247    1.00   0.02  0.00  0.00  0.98  0.00  0.00  0.00  0.18  0.00
  WS02006247WS02006245    1.00   0.02  0.00  0.00  0.98  0.00  0.00  0.00  0.00  0.00
  WS02006245WS02006243    1.00   0.01  0.00  0.00  0.96  0.00  0.00  0.03  0.02  0.00
  WS02006243WS02006242    1.00   0.01  0.00  0.00  0.99  0.00  0.00  0.00  0.19  0.00
  WS02006242WS02006240    1.00   0.00  0.00  0.00  0.99  0.00  0.00  0.00  0.00  0.00
  WS02006240WS02006239    1.00   0.00  0.00  0.00  0.97  0.00  0.00  0.03  0.01  0.00
  WS02006239WS02006238    1.00   0.00  0.00  0.00  1.00  0.00  0.00  0.00  0.00  0.00
  WS02006238WS02006235    1.00   0.00  0.00  0.00  1.00  0.00  0.00  0.00  0.00  0.00
  WS02006235WS02006234    1.00   0.00  0.00  0.00  0.97  0.00  0.03  0.00  0.00  0.00
  WS02006234WS02006232    1.00   0.00  0.00  0.00  1.00  0.00  0.00  0.00  0.06  0.00
  WS02006232WS02006231    1.00   0.00  0.00  0.00  0.99  0.00  0.00  0.00  0.00  0.00
  WS02006231WS02006230    1.00   0.00  0.00  0.00  0.63  0.00  0.37  0.00  0.00  0.00
  WS02006230WS02006229    1.00   0.00  0.00  0.00  0.99  0.00  0.00  0.01  0.00  0.00
  WS02006228WS02006109    1.00   0.00  0.00  0.00  1.00  0.00  0.00  0.00  0.00  0.00
  WS02006116WS02004401    1.00   0.02  0.00  0.00  0.98  0.00  0.00  0.00  0.00  0.00
  WS02006115WS02006116    1.00   0.02  0.00  0.00  0.97  0.00  0.00  0.01  0.00  0.00
  WS02006113WS02006111    1.00   0.02  0.00  0.00  0.00  0.98  0.00  0.00  0.13  0.00
  WS02006112WS02006115    1.00   0.02  0.00  0.00  0.97  0.00  0.00  0.00  0.00  0.00
  WS02006111WS02006112    1.00   0.02  0.00  0.00  0.98  0.00  0.00  0.00  0.98  0.00
  WS02006110WS02006113    1.00   0.01  0.01  0.00  0.98  0.00  0.00  0.00  0.00  0.00
  WS02006109WS02006110    1.00   0.00  0.01  0.00  0.98  0.00  0.01  0.00  0.00  0.00
  WS02004411WS02004412    1.00   0.04  0.00  0.00  0.96  0.00  0.00  0.00  0.00  0.00
  WS02004401WS02004402    1.00   0.02  0.00  0.00  0.98  0.00  0.00  0.00  0.00  0.00
  WS02004413WS02003067    1.00   0.04  0.02  0.00  0.00  0.00  0.95  0.00  0.00  0.00
  WS02004412WS02004413    1.00   0.04  0.00  0.00  0.96  0.00  0.00  0.00  0.03  0.00
  WS02004410WS02004411    1.00   0.04  0.00  0.00  0.96  0.00  0.00  0.00  0.03  0.00
  WS02004409WS02004410    1.00   0.04  0.00  0.00  0.96  0.00  0.00  0.00  0.02  0.00
  WS02004407WS02004409    1.00   0.04  0.00  0.00  0.96  0.00  0.00  0.00  0.89  0.00
  WS02004406WS02004407    1.00   0.00  0.04  0.00  0.96  0.00  0.00  0.00  0.00  0.00
  WS02004405WS02004406    1.00   0.00  0.00  0.00  1.00  0.00  0.00  0.00  0.01  0.00
  WS02004404WS02004405    1.00   0.00  0.00  0.00  1.00  0.00  0.00  0.00  0.00  0.00
  WS02004403WS02004404    1.00   0.00  0.03  0.00  0.97  0.00  0.00  0.00  0.01  0.00
  WS02004402WS02004403    1.00   0.03  0.00  0.00  0.97  0.00  0.00  0.00  0.00  0.00
  WS02004139WS02001211    1.00   0.00  0.00  0.00  1.00  0.00  0.00  0.00  0.00  0.00
  WS02004138WS02004139    1.00   0.00  0.00  0.00  0.99  0.01  0.00  0.00  1.00  0.00
  WS02003067WS02003066    1.00   0.05  0.01  0.00  0.94  0.00  0.00  0.00  0.00  0.00
  WS02001213WS02003059    1.00   0.00  0.00  0.00  0.99  0.00  0.00  0.00  0.00  0.00
  WS02001212WS02001213    1.00   0.00  0.00  0.00  0.77  0.00  0.22  0.00  0.00  0.00
  WS02001211WS02001212    1.00   0.00  0.00  0.00  1.00  0.00  0.00  0.00  0.00  0.00
  WS02003072WS02003073    1.00   0.00  0.00  0.00  0.00  0.00  0.00  1.00  0.00  0.00
  WS02003069WS02003072    1.00   0.00  0.00  0.00  0.99  0.01  0.00  0.00  0.26  0.00
  WS02003060WS02003069    1.00   0.00  0.00  0.00  0.98  0.02  0.00  0.00  0.14  0.00
  WS02003059WS02003060    1.00   0.00  0.00  0.00  1.00  0.00  0.00  0.00  0.01  0.00
  HS02004901HS02004770    1.00   0.04  0.00  0.00  0.96  0.00  0.00  0.00  0.00  0.00
  HS02004876HS02004881    1.00   0.02  0.00  0.00  0.98  0.00  0.00  0.00  0.00  0.00
  HS02004870HS02004876    1.00   0.00  0.00  0.00  0.99  0.00  0.00  0.00  0.95  0.00
  HS02004842HS02004848    1.00   0.00  0.04  0.00  0.96  0.00  0.00  0.00  0.58  0.00
  HS02004837HS02004842    1.00   0.00  0.00  0.00  0.99  0.01  0.00  0.00  0.11  0.00
  HS02004830HS02004837    1.00   0.00  0.00  0.00  1.00  0.00  0.00  0.00  0.99  0.00
  HS02004824HS02004830    1.00   0.00  0.00  0.00  1.00  0.00  0.00  0.00  0.00  0.00
  HS02004817HS02004824    1.00   0.00  0.00  0.00  1.00  0.00  0.00  0.00  1.00  0.00
  HS02004770HS02004777    1.00   0.00  0.04  0.00  0.96  0.00  0.00  0.00  0.03  0.00
  HS02004799HS02004480    1.00   0.00  0.02  0.00  0.95  0.00  0.02  0.00  0.00  0.00
  HS02004792HS02004799    1.00   0.00  0.00  0.00  0.99  0.01  0.00  0.00  0.98  0.00
  HS02004788HS02004792    1.00   0.00  0.00  0.00  0.99  0.01  0.00  0.00  0.98  0.00
  HS02004785HS02004788    1.00   0.00  0.00  0.00  1.00  0.00  0.00  0.00  0.00  0.00
  HS02004777HS02004785    1.00   0.00  0.00  0.00  1.00  0.00  0.00  0.00  0.12  0.00
  HS02004480HS02004478    1.00   0.04  0.00  0.00  0.64  0.00  0.00  0.32  0.00  0.00
  HS02004479HS02004480    1.00   0.03  0.00  0.00  0.97  0.00  0.00  0.00  0.12  0.00
  HS02004862HS02004870    1.00   0.00  0.00  0.00  1.00  0.00  0.00  0.00  0.04  0.00
  HS02004848HS02004852    1.00   0.04  0.00  0.00  0.96  0.00  0.00  0.00  0.77  0.00
  HS02004856HS02004862    1.00   0.00  0.05  0.00  0.95  0.00  0.00  0.00  0.83  0.00
  HS02004852HS02004856    1.00   0.04  0.00  0.00  0.96  0.00  0.00  0.00  0.86  0.00
  HS02004802HS02004478    1.00   0.04  0.00  0.00  0.96  0.00  0.00  0.00  0.03  0.00
  HS02004478WS02006287    1.00   0.05  0.00  0.00  0.72  0.23  0.00  0.00  0.68  0.00
  HS02004817HS02004807    1.00   0.00  0.04  0.00  0.96  0.00  0.00  0.00  0.01  0.00
  HS02004807HS02004802    1.00   0.04  0.00  0.00  0.95  0.00  0.00  0.00  0.00  0.00
  YS02001759YS02001757    1.00   0.00  0.00  0.00  1.00  0.00  0.00  0.00  0.16  0.00
  YS02001762YS02001759    1.00   0.00  0.00  0.00  1.00  0.00  0.00  0.00  0.03  0.00
  YS02001765YS02001762    1.00   0.00  0.00  0.00  1.00  0.00  0.00  0.00  0.14  0.00
  YS02001770YS02001767    1.00   0.00  0.00  0.00  1.00  0.00  0.00  0.00  0.00  0.00
  YS02001774YS02001770    1.00   0.00  0.04  0.00  0.96  0.00  0.00  0.00  0.03  0.00
  YS02001779YS02001774    1.00   0.00  0.00  0.00  1.00  0.00  0.00  0.00  0.18  0.00
  YS02001649YS02001757    1.00   0.00  0.00  0.00  1.00  0.00  0.00  0.00  0.16  0.00
  YS02001767YS02001765    1.00   0.00  0.00  0.00  1.00  0.00  0.00  0.00  0.00  0.00
  YS02006561YS02001783    1.00   0.05  0.00  0.00  0.21  0.74  0.00  0.00  0.55  0.00
  YS02001783YS02001784    1.00   0.00  0.05  0.00  0.95  0.00  0.00  0.00  0.00  0.00
  YS02001784YS02001785    1.00   0.00  0.00  0.00  1.00  0.00  0.00  0.00  0.17  0.00
  YS02001788YS02001790    1.00   0.00  0.00  0.00  0.40  0.60  0.00  0.00  0.56  0.00
  YS02001790YS02001791    1.00   0.00  0.00  0.00  0.39  0.61  0.00  0.00  0.46  0.00
  YS02001791YS02001793    1.00   0.00  0.00  0.00  0.42  0.58  0.00  0.00  0.04  0.00
  YS02001910YS02001907    1.00   0.00  0.00  0.00  0.97  0.00  0.00  0.02  0.12  0.00
  YS02001786YS02001788    1.00   0.00  0.00  0.00  0.31  0.69  0.00  0.00  0.00  0.00
  YS02001915YS02001910    1.00   0.00  0.00  0.00  0.99  0.01  0.00  0.00  0.16  0.00
  YS02001918YS02001915    1.00   0.00  0.01  0.00  0.98  0.01  0.00  0.00  0.60  0.00
  YS02001923YS02001920    1.00   0.00  0.00  0.00  1.00  0.00  0.00  0.00  0.93  0.00
  YS02001926YS02001923    1.00   0.00  0.03  0.00  0.00  0.00  0.97  0.00  0.00  0.00
  YS02001929YS02001926    1.00   0.00  0.04  0.00  0.96  0.00  0.00  0.00  0.87  0.00
  YS02001920YS02001918    1.00   0.00  0.01  0.00  0.99  0.00  0.00  0.00  0.00  0.00
  YS02001629YS02163301    1.00   0.05  0.00  0.00  0.95  0.00  0.00  0.00  0.00  0.00
  YS02001619YS02001622    1.00   0.04  0.00  0.00  0.96  0.00  0.00  0.00  0.00  0.00
  YS02001622YS02001625    1.00   0.04  0.00  0.00  0.96  0.00  0.00  0.00  0.04  0.00
  YS02001625YS02001629    1.00   0.04  0.01  0.00  0.93  0.00  0.01  0.00  0.00  0.00
  YS02163301YS02001633    1.00   0.00  0.05  0.00  0.95  0.00  0.00  0.00  0.00  0.00
  YS02163601YS02164001    1.00   0.00  0.03  0.00  0.97  0.00  0.00  0.00  0.00  0.00
  YS02164001YS02001641    1.00   0.01  0.03  0.00  0.97  0.00  0.00  0.00  0.06  0.00
  YS02001641YS02001644    1.00   0.00  0.01  0.00  0.99  0.00  0.00  0.00  0.00  0.00
  YS02001647YS02001649    1.00   0.00  0.05  0.00  0.95  0.00  0.00  0.00  0.01  0.00
  YS02006553YS02006556    1.00   0.01  0.00  0.00  0.99  0.00  0.00  0.00  0.03  0.00
  YS02006556YS02006558    1.00   0.00  0.00  0.00  1.00  0.00  0.00  0.00  0.00  0.00
  YSB6556YSB1171          1.00   0.03  0.01  0.00  0.96  0.00  0.00  0.00  0.00  0.00
  YS02001907YS02006553    1.00   0.00  0.02  0.00  0.98  0.00  0.00  0.00  0.00  0.00
  YS02006558YS02006561    1.00   0.05  0.00  0.00  0.06  0.89  0.00  0.00  0.53  0.00
  YS02001633YS02163601    1.00   0.00  0.01  0.00  0.99  0.00  0.00  0.00  0.15  0.00
  YS02001644YS02001647    1.00   0.00  0.05  0.00  0.95  0.00  0.00  0.00  0.00  0.00
  YS02001745YS02001748    1.00   0.00  0.00  0.00  0.90  0.01  0.00  0.09  0.05  0.00
  YS02001748YS02001751    1.00   0.00  0.00  0.00  0.98  0.02  0.00  0.00  0.14  0.00
  YS02001751YS02001754    1.00   0.00  0.00  0.00  0.94  0.00  0.00  0.06  0.02  0.00
  YS02001754YS02001757    1.00   0.00  0.00  0.00  0.99  0.01  0.00  0.00  0.18  0.00
  YS02001882YS02001884    1.00   0.05  0.00  0.00  0.95  0.00  0.00  0.00  0.00  0.00
  YS02001884YS02001887    1.00   0.03  0.01  0.00  0.96  0.00  0.00  0.00  0.00  0.00
  YS02001890YS02001895    1.00   0.00  0.04  0.00  0.95  0.00  0.00  0.00  0.00  0.00
  YS02001895YS02001898    1.00   0.05  0.00  0.00  0.95  0.00  0.01  0.00  0.00  0.00
  YS02001898YS02001901    1.00   0.05  0.00  0.00  0.95  0.00  0.00  0.00  0.01  0.00
  YS02001901YS02001904    1.00   0.05  0.00  0.00  0.95  0.00  0.00  0.00  0.00  0.00
  YS02001904YS02001907    1.00   0.00  0.05  0.00  0.95  0.00  0.00  0.00  0.00  0.00
  YS02001887YS02001890    1.00   0.00  0.00  0.00  0.97  0.00  0.02  0.00  0.00  0.00
  YS02001652YS02001649    1.00   0.00  0.00  0.00  1.00  0.00  0.00  0.00  0.16  0.00
  YS02001655YS02001652    1.00   0.00  0.00  0.00  0.94  0.00  0.00  0.05  0.02  0.00
  YS02001658YS02001655    1.00   0.00  0.04  0.00  0.93  0.02  0.00  0.00  0.05  0.00
  YS02001661YS02001658    1.00   0.04  0.00  0.00  0.90  0.06  0.00  0.00  0.04  0.00
  YS02001664YS02001661    1.00   0.04  0.00  0.00  0.85  0.10  0.00  0.00  0.21  0.00
  YSB1154YSB6556          1.00   0.04  0.00  0.00  0.96  0.00  0.00  0.00  0.02  0.00
  YSB1174YSB1171          1.00   0.03  0.01  0.00  0.96  0.00  0.00  0.00  0.00  0.00
  YSB1171HS02004479       1.00   0.03  0.00  0.00  0.97  0.00  0.00  0.00  0.10  0.00
  HS02004881HS02006253    1.00   0.03  0.00  0.00  0.69  0.03  0.00  0.25  0.55  0.00
  YS02001793JiankangQianchi    1.00   0.00  0.00  0.00  0.69  0.31  0.00  0.00  0.25  0.00
  YS02001757CaochengTiaoxuchi    1.00   0.00  0.07  0.00  0.93  0.00  0.00  0.00  0.00  0.00
  WSF200WS02003060        1.00   0.00  0.05  0.00  0.54  0.41  0.00  0.00  0.25  0.00
  1                       1.00   0.00  0.00  0.00  0.00  1.00  0.00  0.00  0.29  0.00
  2                       1.00   0.60  0.00  0.00  0.00  0.40  0.00  0.00  0.09  0.00
  3                       1.00   0.16  0.00  0.00  0.00  0.84  0.00  0.00  0.26  0.00
  4                       1.00   1.00  0.00  0.00  0.00  0.00  0.00  0.00  0.00  0.00
  
  
  *************************
  Conduit Surcharge Summary
  *************************
  
  ----------------------------------------------------------------------------
                                                           Hours        Hours 
                         --------- Hours Full --------   Above Full   Capacity
  Conduit                Both Ends  Upstream  Dnstream   Normal Flow   Limited
  ----------------------------------------------------------------------------
  WS02006229WS02006228        2.50      2.76      2.50      4.38         2.50
  WS02006256WS02006235        6.19      6.19      7.41      3.12         0.01
  WS02006253WS02006251        0.01      0.01      0.01      0.01         0.01
  WS02006252WS02006251        1.09      1.09      2.16      1.88         0.01
  WS02006251WS02006249        0.01      0.01      0.01      1.18         0.01
  WS02006249WS02006248        0.01      0.01      0.01      3.92         0.01
  WS02006248WS02006247        0.01      0.01      0.01      0.01         0.01
  WS02006247WS02006245        0.01      0.01      0.01      4.45         0.01
  WS02006245WS02006243        0.01      0.01      0.03      0.02         0.01
  WS02006243WS02006242        0.05      0.05      1.32      0.01         0.01
  WS02006242WS02006240        0.19      0.19      1.83      2.23         0.01
  WS02006240WS02006239        0.31      0.31      0.53      0.18         0.01
  WS02006239WS02006238        1.75      1.75      2.00      0.19         0.22
  WS02006238WS02006235        1.75      1.75      2.35      0.01         0.01
  WS02006235WS02006234        0.29      0.29      1.44      6.15         0.01
  WS02006234WS02006232        0.68      0.68      2.55      0.01         0.01
  WS02006232WS02006231        0.17      0.17      2.55      0.01         0.01
  WS02006231WS02006230        0.01      0.01      0.19      6.24         0.01
  WS02006230WS02006229        3.40      4.17      3.40      6.46         3.40
  WS02006228WS02006109        2.63      3.15      2.63      5.10         2.63
  WS02006112WS02006115        0.01      0.01      0.95      0.01         0.01
  WS02006111WS02006112        0.01      0.01      4.59      0.01         0.01
  WS02006110WS02006113        0.01      0.01      2.95      0.01         0.01
  WS02006109WS02006110        0.52      0.52      3.16      0.53         0.01
  WS02004405WS02004406        0.01      0.01      0.01      0.75         0.01
  WS02004404WS02004405        0.01      0.01      0.01      6.14         0.01
  WS02003072WS02003073        0.01      0.01      0.01      4.61         0.01
  YS02001759YS02001757        5.97      5.97      6.03      0.01         0.01
  YS02001762YS02001759        5.94      5.94      5.97      0.01         0.01
  YS02001765YS02001762        5.91      5.91      5.94      0.01         0.01
  YS02001770YS02001767        5.89      5.90      5.90      0.01         0.94
  YS02001774YS02001770        5.87      5.87      5.93      0.01         0.01
  YS02001779YS02001774        5.66      5.66      5.93      0.01         0.01
  YS02001649YS02001757        5.94      5.94      6.03      0.01         0.01
  YS02001767YS02001765        5.90      5.90      5.91      0.01         0.01
  YS02006561YS02001783        0.01      0.01      0.88      0.01         0.01
  YS02001783YS02001784        0.88      0.88      0.95      0.32         0.32
  YS02001784YS02001785        0.89      0.95      0.89      1.90         0.89
  YS02001788YS02001790        0.87      0.87      1.39      0.01         0.01
  YS02001790YS02001791        1.39      1.39      1.84      0.01         0.01
  YS02001791YS02001793        1.84      1.84      2.62      0.01         0.01
  YS02001910YS02001907        0.21      0.21      1.21      0.01         0.01
  YS02001786YS02001788        0.86      0.89      0.87      1.50         0.86
  YS02001915YS02001910        0.01      0.01      0.21      0.01         0.01
  YS02001629YS02163301        5.87      5.87      5.88      0.01         0.01
  YS02001619YS02001622        5.35      5.35      5.45      0.01         0.02
  YS02001622YS02001625        5.45      5.45      5.79      0.01         0.01
  YS02001625YS02001629        5.38      5.38      5.79      0.01         0.01
  YS02163301YS02001633        5.88      5.88      5.92      0.01         0.01
  YS02163601YS02164001        5.92      5.92      5.95      0.01         0.01
  YS02164001YS02001641        5.92      5.92      5.92      0.01         0.03
  YS02001641YS02001644        5.92      5.92      5.93      0.69         1.24
  YS02001647YS02001649        5.76      5.76      5.94      0.01         0.01
  YS02006553YS02006556        0.70      0.70      1.29      0.01         0.01
  YS02006556YS02006558        1.01      1.01      1.40      0.01         0.01
  YS02001907YS02006553        1.92      1.92      2.14      0.01         0.01
  YS02006558YS02006561        0.01      0.62      0.01      1.76         0.01
  YS02001633YS02163601        5.91      5.91      5.95      0.01         0.01
  YS02001644YS02001647        5.76      5.76      5.93      0.01         0.01
  YS02001745YS02001748        0.01      0.01      5.12      0.01         0.01
  YS02001748YS02001751        5.19      5.19      5.38      0.01         0.01
  YS02001751YS02001754        5.38      5.38      5.69      0.01         0.01
  YS02001754YS02001757        5.76      5.76      6.03      0.01         0.01
  YS02001890YS02001895        0.01      0.01      0.27      0.01         0.01
  YS02001904YS02001907        0.01      0.01      1.33      0.01         0.01
  YS02001887YS02001890        0.04      0.04      0.16      0.01         0.01
  YS02001652YS02001649        5.78      5.78      5.94      0.01         0.01
  YS02001655YS02001652        5.41      5.41      5.74      0.01         0.01
  YS02001658YS02001655        5.15      5.15      5.41      0.01         0.01
  YS02001661YS02001658        0.17      0.17      5.15      0.01         0.01
  YS02001664YS02001661        0.01      0.01      0.95      0.01         0.01
  YS02001793JiankangQianchi        2.52      2.52      3.89      0.01         0.01
  YS02001757CaochengTiaoxuchi        5.08      5.08      6.03      0.01         0.01
  
  
  ***************
  Pumping Summary
  ***************
  
  ---------------------------------------------------------------------------------------------------------
                                                  Min       Avg       Max     Total     Power    % Time Off
                        Percent   Number of      Flow      Flow      Flow    Volume     Usage    Pump Curve
  Pump                 Utilized   Start-Ups       LPS       LPS       LPS  10^6 ltr     Kw-hr    Low   High
  ---------------------------------------------------------------------------------------------------------
  CC-Pump-1               46.81           5      0.00    146.77    200.00     1.920      2.64    0.0    6.0
  CC-Pump-2               61.97           6      0.00    140.59    200.00     2.447      3.91    0.0   11.8
  JK-Pump-1               82.97           9      0.00    188.47    300.00     3.470     41.21    0.0    0.0
  JK-Pump-2               63.82           8      0.00    173.62    300.00     2.536     27.67    0.0    0.0
  XR-Pump-1               82.97          10      0.00     65.64     95.00     1.596     14.18    0.0    0.0
  XR-Pump-2               85.09          10      0.00     63.45     95.00     1.653     14.52    0.0    0.0
  XR-Pump-3               74.46           8      0.00     68.27     95.00     1.511     16.04    0.0    0.0
  XR-Pump-4               65.95           7      0.00     65.54     95.00     1.197      9.04    0.0    0.0
  

  Analysis begun on:  Tue Dec 14 15:50:39 2021
  Analysis ended on:  Tue Dec 14 15:50:44 2021
  Total elapsed time: 00:00:05