
  EPA STORM WATER MANAGEMENT MODEL - VERSION 5.1 (Build 5.3.0.dev0)
  --------------------------------------------------------------

  WARNING 04: minimum elevation drop used for Conduit WS02004404WS02004405
  WARNING 03: negative offset ignored for Link YS02001904YS02001907
  
  *********************************************************
  NOTE: The summary statistics displayed in this report are
  based on results found at every computational time step,  
  not just on results from each reporting time step.
  *********************************************************
  
  ****************
  Analysis Options
  ****************
  Flow Units ............... LPS
  Process Models:
    Rainfall/Runoff ........ YES
    RDII ................... NO
    Snowmelt ............... NO
    Groundwater ............ NO
    Flow Routing ........... YES
    Ponding Allowed ........ NO
    Water Quality .......... NO
  Infiltration Method ...... HORTON
  Flow Routing Method ...... DYNWAVE
  Surcharge Method ......... EXTRAN
  Starting Date ............ 08/28/2015 08:00:00
  Ending Date .............. 08/28/2015 15:50:00
  Antecedent Dry Days ...... 8.0
  Report Time Step ......... 00:01:00
  Wet Time Step ............ 00:01:00
  Dry Time Step ............ 00:01:00
  Routing Time Step ........ 5.00 sec
  Variable Time Step ....... YES
  Maximum Trials ........... 8
  Number of Threads ........ 4
  Head Tolerance ........... 0.001500 m
  
  
  **************************        Volume         Depth
  Runoff Quantity Continuity     hectare-m            mm
  **************************     ---------       -------
  Total Precipitation ......         5.556        12.164
  Evaporation Loss .........         0.000         0.000
  Infiltration Loss ........         1.427         3.124
  Surface Runoff ...........         3.072         6.726
  Final Storage ............         1.058         2.316
  Continuity Error (%) .....        -0.016
  
  
  **************************        Volume        Volume
  Flow Routing Continuity        hectare-m      10^6 ltr
  **************************     ---------     ---------
  Dry Weather Inflow .......         0.616         6.165
  Wet Weather Inflow .......         3.071        30.708
  Groundwater Inflow .......         0.000         0.000
  RDII Inflow ..............         0.000         0.000
  External Inflow ..........         0.102         1.024
  External Outflow .........         2.250        22.496
  Flooding Loss ............         1.076        10.759
  Evaporation Loss .........         0.000         0.000
  Exfiltration Loss ........         0.000         0.000
  Initial Stored Volume ....         0.076         0.761
  Final Stored Volume ......         0.606         6.062
  Continuity Error (%) .....        -1.704
  
  
  *************************
  Highest Continuity Errors
  *************************
  Node HS02004842 (16.24%)
  Node YS02001884 (11.49%)
  Node JK-storage (-6.22%)
  Node YS02001774 (3.51%)
  Node YSB1171 (3.12%)
  
  
  ***************************
  Time-Step Critical Elements
  ***************************
  Link 3 (47.83%)
  Link WS02006252WS02006251 (42.74%)
  Link WS02006238WS02006235 (3.67%)
  Link WS02006280WS02006229 (1.58%)
  
  
  ********************************
  Highest Flow Instability Indexes
  ********************************
  Link YS02001619YS02001622 (40)
  Link YS02163601YS02164001 (38)
  Link YS02001629YS02163301 (38)
  Link YS02163301YS02001633 (37)
  Link YS02164001YS02001641 (35)
  
  
  *************************
  Routing Time Step Summary
  *************************
  Minimum Time Step           :     0.49 sec
  Average Time Step           :     0.75 sec
  Maximum Time Step           :     5.00 sec
  Percent in Steady State     :    -0.00
  Average Iterations per Step :     4.76
  Percent Not Converging      :    24.87
  
  
  ***************************
  Subcatchment Runoff Summary
  ***************************
  
  ------------------------------------------------------------------------------------------------------------------------------
                            Total      Total      Total      Total     Imperv       Perv      Total       Total     Peak  Runoff
                           Precip      Runon       Evap      Infil     Runoff     Runoff     Runoff      Runoff   Runoff   Coeff
  Subcatchment                 mm         mm         mm         mm         mm         mm         mm    10^6 ltr      LPS
  ------------------------------------------------------------------------------------------------------------------------------
  sub0                      12.16       0.00       0.00       0.85      10.05       0.00      10.05        0.01     1.91   0.826
  sub1                      12.16       0.00       0.00       1.34       9.56       0.00       9.56        0.06    14.15   0.786
  sub2                      12.16       0.00       0.00       4.50       6.75       0.00       6.75        0.06    13.75   0.555
  sub3                      12.16       0.00       0.00       4.50       6.71       0.00       6.71        0.15    32.07   0.552
  sub4                      12.16       0.00       0.00       1.34       9.40       0.00       9.40        0.20    40.20   0.773
  sub5                      12.16       0.00       0.00       0.85       9.99       0.00       9.99        0.11    25.19   0.822
  sub7                      12.16       0.00       0.00       1.09       9.81       0.00       9.81        0.03     7.55   0.807
  sub8                      12.16       0.00       0.00       1.09       9.80       0.00       9.80        0.06    14.17   0.806
  sub9                      12.16       0.00       0.00       1.09       9.80       0.00       9.80        0.05    10.64   0.806
  sub10                     12.16       0.00       0.00       0.97       9.89       0.00       9.89        0.11    24.40   0.813
  sub11                     12.16       0.00       0.00       0.97       9.91       0.00       9.91        0.12    26.15   0.815
  sub12                     12.16       0.00       0.00       1.58       9.39       0.00       9.39        0.08    19.06   0.772
  sub14                     12.16       0.00       0.00       1.09       9.80       0.00       9.80        0.09    21.02   0.805
  sub15                     12.16       0.00       0.00       3.65       7.53       0.00       7.53        0.13    29.11   0.619
  sub16                     12.16       0.00       0.00       4.01       7.23       0.00       7.23        0.08    17.47   0.594
  sub17                     12.16       0.00       0.00       3.89       7.34       0.00       7.34        0.06    14.47   0.603
  sub22                     12.16       0.00       0.00       5.23       6.14       0.00       6.14        0.39    88.27   0.505
  sub23                     12.16       0.00       0.00       4.50       6.79       0.00       6.79        0.32    73.89   0.558
  sub60                     12.16       0.00       0.00       1.46       7.71       0.00       7.71        2.34   297.17   0.634
  sub61                     12.16       0.00       0.00       2.07       7.87       0.00       7.87        2.43   359.80   0.647
  sub62                     12.16       0.00       0.00       0.97       8.55       0.00       8.55        2.63   372.87   0.703
  sub63                     12.16       0.00       0.00       3.53       6.89       0.00       6.89        2.09   327.80   0.567
  sub64                     12.16       0.00       0.00       1.82       7.40       0.00       7.40        2.25   282.66   0.608
  sub65                     12.16       0.00       0.00       1.58       7.52       0.00       7.52        2.31   287.20   0.618
  sub66                     12.16       0.00       0.00       3.53       6.36       0.00       6.36        1.95   257.27   0.523
  sub67                     12.16       0.00       0.00       0.97       9.05       0.00       9.05        2.79   452.90   0.744
  sub68                     12.16       0.00       0.00       1.70       8.28       0.00       8.28        2.55   391.99   0.681
  sub69                     12.16       0.00       0.00       1.82       8.61       0.00       8.61        2.01   355.79   0.708
  sub70                     12.16       8.79       0.00       7.03      11.43       0.10      11.53        2.64   335.00   0.550
  sub71                     12.16       0.00       0.00       0.97       8.31       0.00       8.31        1.96   263.63   0.683
  sub72                     12.16       0.00       0.00       0.85       6.56       0.00       6.56        1.34   129.40   0.540
  sub73                     12.16      11.23       0.00       7.88      12.47       0.08      12.54        2.95   300.52   0.536
  sub74                     12.16       0.00       0.00       9.12       2.57       0.00       2.57        1.03   189.59   0.211
  
  
  ******************
  Node Depth Summary
  ******************
  
  ---------------------------------------------------------------------------------
                                 Average  Maximum  Maximum  Time of Max    Reported
                                   Depth    Depth      HGL   Occurrence   Max Depth
  Node                 Type       Meters   Meters   Meters  days hr:min      Meters
  ---------------------------------------------------------------------------------
  WS02001211           JUNCTION     0.67     0.77     5.61     0  04:31        0.77
  WS02001212           JUNCTION     0.40     0.48     5.55     0  04:31        0.48
  WS02001213           JUNCTION     0.64     0.73     5.49     0  04:32        0.73
  WS02003069           JUNCTION     0.47     0.58     5.16     0  02:53        0.58
  WS02003072           JUNCTION     0.53     0.63     5.01     0  02:54        0.63
  WS02003073           JUNCTION     0.32     0.39     4.46     0  02:55        0.39
  WS02003060           JUNCTION     0.42     0.51     5.44     0  02:53        0.51
  WS02003066           JUNCTION     0.25     0.33     5.88     0  03:06        0.33
  WS02003059           JUNCTION     0.70     0.78     5.47     0  03:12        0.78
  WS02003067           JUNCTION     0.61     0.75     6.07     0  03:06        0.75
  WS02004401           JUNCTION     0.74     0.99     6.99     0  03:04        0.98
  WS02004402           JUNCTION     0.76     1.00     6.96     0  03:04        1.00
  WS02004403           JUNCTION     0.78     1.00     6.93     0  03:04        1.00
  WS02004404           JUNCTION     0.85     1.06     6.91     0  03:04        1.06
  WS02004406           JUNCTION     0.86     1.04     6.87     0  03:04        1.03
  WS02004409           JUNCTION     0.55     0.76     6.53     0  03:04        0.76
  WS02004410           JUNCTION     0.57     0.77     6.49     0  03:05        0.77
  WS02004411           JUNCTION     0.58     0.77     6.45     0  03:05        0.77
  WS02004412           JUNCTION     0.59     0.77     6.41     0  03:05        0.77
  WS02004413           JUNCTION     0.75     0.92     6.39     0  03:05        0.92
  WS02004405           JUNCTION     0.85     1.05     6.90     0  03:04        1.05
  WS02006109           JUNCTION     0.82     1.11     7.73     0  03:03        1.10
  WS02006110           JUNCTION     0.80     1.02     7.61     0  03:02        1.02
  WS02006111           JUNCTION     0.24     0.37     7.08     0  03:03        0.36
  WS02006112           JUNCTION     0.91     1.20     7.09     0  03:03        1.20
  WS02006113           JUNCTION     0.38     0.51     7.41     0  03:02        0.51
  WS02006115           JUNCTION     0.63     0.90     7.04     0  03:03        0.90
  WS02006116           JUNCTION     0.71     0.97     7.01     0  03:04        0.97
  WS02006230           JUNCTION     0.83     1.18     7.93     0  03:02        1.18
  WS02006231           JUNCTION     0.56     0.84     7.96     0  03:01        0.84
  WS02006232           JUNCTION     0.70     0.96     8.00     0  03:01        0.95
  WS02006234           JUNCTION     0.63     0.88     8.03     0  03:02        0.87
  WS02006235           JUNCTION     0.66     0.90     8.06     0  03:02        0.90
  WS02006238           JUNCTION     0.69     0.93     8.07     0  03:03        0.92
  WS02006240           JUNCTION     0.59     0.82     8.11     0  03:01        0.82
  WS02006242           JUNCTION     0.65     0.88     8.14     0  03:00        0.88
  WS02006243           JUNCTION     0.54     0.76     8.18     0  03:01        0.76
  WS02006245           JUNCTION     0.51     0.72     8.21     0  03:00        0.72
  WS02006247           JUNCTION     0.53     0.72     8.22     0  03:00        0.72
  WS02006248           JUNCTION     0.47     0.66     8.24     0  03:00        0.65
  WS02006249           JUNCTION     0.49     0.66     8.26     0  03:00        0.66
  WS02006239           JUNCTION     0.65     0.88     8.09     0  03:01        0.88
  WS02006251           JUNCTION     0.49     0.71     8.38     0  03:00        0.71
  WS02006252           JUNCTION     0.43     0.59     8.84     0  07:30        0.59
  WS02006253           JUNCTION     0.51     0.74     8.39     0  03:00        0.74
  WS02006256           JUNCTION     1.08     1.22     8.15     0  02:40        1.22
  WS02004138           JUNCTION     0.15     0.19     7.44     0  00:40        0.19
  WS02004407           JUNCTION     0.25     0.33     6.65     0  03:04        0.33
  WS02006228           JUNCTION     0.84     1.18     7.83     0  03:01        1.18
  WS02006229           JUNCTION     0.82     1.19     7.89     0  03:02        1.19
  WS02006280           JUNCTION     0.07     0.19     8.46     0  03:02        0.19
  WS02006284           JUNCTION     0.37     0.55     8.95     0  03:02        0.55
  WS02006287           JUNCTION     0.11     0.28     9.24     0  03:01        0.28
  WSF200               JUNCTION     0.25     0.35     5.58     0  02:53        0.35
  HS02004901           JUNCTION     0.13     0.28    10.10     0  03:01        0.28
  HS02004881           JUNCTION     0.01     0.04     9.07     0  03:01        0.04
  HS02004876           JUNCTION     0.05     0.12     9.15     0  03:01        0.12
  HS02004870           JUNCTION     0.02     0.06     9.35     0  03:01        0.06
  HS02004862           JUNCTION     0.02     0.07     9.46     0  03:01        0.07
  HS02004856           JUNCTION     0.08     0.13     9.55     0  03:01        0.13
  HS02004852           JUNCTION     0.01     0.05     9.56     0  03:01        0.05
  HS02004848           JUNCTION     0.01     0.05     9.65     0  03:01        0.05
  HS02004842           JUNCTION     0.33     0.38     9.65     0  03:01        0.38
  HS02004837           JUNCTION     0.03     0.07     9.65     0  03:01        0.07
  HS02004830           JUNCTION     0.04     0.08     9.55     0  03:01        0.08
  HS02004824           JUNCTION     0.03     0.06     9.46     0  03:01        0.06
  HS02004817           JUNCTION     0.45     0.60     9.44     0  03:01        0.60
  HS02004807           JUNCTION     0.13     0.27     9.44     0  03:01        0.27
  HS02004802           JUNCTION     0.17     0.30     9.43     0  03:01        0.30
  HS02004799           JUNCTION     0.13     0.33     9.54     0  03:01        0.33
  HS02004792           JUNCTION     0.04     0.14     9.66     0  03:01        0.14
  HS02004788           JUNCTION     0.03     0.10    10.00     0  03:01        0.10
  HS02004785           JUNCTION     0.05     0.17    10.07     0  03:01        0.17
  HS02004777           JUNCTION     0.15     0.30    10.10     0  03:01        0.30
  HS02004770           JUNCTION     0.12     0.27    10.10     0  03:01        0.27
  HS02004480           JUNCTION     0.09     0.26     9.50     0  03:01        0.26
  HS02004479           JUNCTION     0.13     0.30     9.50     0  03:01        0.30
  HS02004478           JUNCTION     0.07     0.18     9.41     0  03:01        0.18
  YS02001745           JUNCTION     0.67     0.87     8.39     0  03:29        0.87
  YS02001748           JUNCTION     1.06     2.27     9.35     0  02:44        1.31
  YS02001751           JUNCTION     1.24     2.20     9.08     0  02:41        1.52
  YS02001754           JUNCTION     1.49     2.20     8.81     0  02:44        1.81
  YS02001762           JUNCTION     1.70     2.09     8.49     0  02:46        2.03
  YS02001765           JUNCTION     1.65     2.04     8.49     0  02:46        1.97
  YS02001767           JUNCTION     1.61     2.00     8.49     0  02:46        1.92
  YS02001770           JUNCTION     1.61     1.95     8.44     0  02:45        1.90
  YS02001774           JUNCTION     1.68     2.03     8.45     0  02:45        1.97
  YS02001779           JUNCTION     1.43     1.68     8.37     0  02:41        1.68
  YS02001882           JUNCTION     0.54     1.63     8.35     0  02:54        1.60
  YS02001884           JUNCTION     0.63     1.72     8.34     0  02:54        1.70
  YS02001759           JUNCTION     1.73     2.13     8.49     0  02:46        2.09
  YS02001887           JUNCTION     0.71     1.80     8.34     0  02:54        1.78
  YS02001890           JUNCTION     0.74     1.81     8.32     0  02:54        1.80
  YS02001898           JUNCTION     0.51     1.56     8.30     0  02:54        1.54
  YS02001901           JUNCTION     0.63     1.67     8.28     0  02:54        1.66
  YS02001904           JUNCTION     0.60     1.64     8.27     0  02:54        1.63
  YS02001907           JUNCTION     0.93     1.96     8.25     0  02:54        1.96
  YS02001910           JUNCTION     0.72     1.78     8.29     0  02:56        1.77
  YS02001915           JUNCTION     0.52     1.59     8.31     0  02:56        1.58
  YS02001918           JUNCTION     0.27     1.28     8.34     0  02:55        1.26
  YS02001619           JUNCTION     1.21     1.61     8.54     0  02:41        1.47
  YS02001629           JUNCTION     1.57     1.85     8.40     0  02:42        1.84
  YS02001641           JUNCTION     1.67     1.97     8.40     0  02:45        1.93
  YS02001644           JUNCTION     1.67     1.92     8.35     0  02:45        1.92
  YS02001652           JUNCTION     1.51     2.16     8.76     0  03:02        2.03
  YS02001655           JUNCTION     1.27     2.20     9.05     0  02:36        2.04
  YS02001920           JUNCTION     0.36     1.36     8.36     0  02:56        1.34
  YS02001923           JUNCTION     0.20     1.11     8.37     0  02:55        1.10
  YS02001926           JUNCTION     0.26     0.96     8.40     0  02:55        0.96
  YS02001929           JUNCTION     0.14     0.71     8.41     0  02:55        0.65
  YS02001658           JUNCTION     1.00     2.30     9.44     0  02:43        1.98
  YS02001661           JUNCTION     0.78     2.46     9.86     0  03:03        1.95
  YS02001664           JUNCTION     0.33     0.57     8.49     0  03:52        0.56
  YS02001622           JUNCTION     1.23     1.62     8.52     0  02:41        1.49
  YS02001633           JUNCTION     1.66     2.00     8.45     0  02:45        1.93
  YS02001649           JUNCTION     1.71     2.05     8.44     0  02:43        2.05
  YS02001757           JUNCTION     1.83     2.21     8.47     0  02:44        2.16
  YS02001895           JUNCTION     0.50     1.56     8.31     0  02:55        1.55
  YS02001625           JUNCTION     1.52     1.78     8.38     0  02:42        1.78
  YS02163301           JUNCTION     1.60     1.95     8.47     0  02:45        1.87
  YS02163601           JUNCTION     1.71     2.04     8.44     0  02:45        1.98
  YS02164001           JUNCTION     1.65     1.97     8.43     0  02:45        1.91
  YS02001647           JUNCTION     1.50     1.82     8.43     0  02:43        1.81
  YSB1154              JUNCTION     0.27     0.45     9.51     0  03:01        0.45
  YSB6556              JUNCTION     0.16     0.34     9.51     0  03:01        0.34
  YSB1174              JUNCTION     0.22     0.40     9.51     0  03:01        0.40
  YSB1171              JUNCTION     0.42     0.60     9.51     0  03:01        0.60
  YS02006553           JUNCTION     0.93     1.96     8.25     0  02:58        1.96
  YS02006561           JUNCTION     0.31     1.10     7.76     0  02:54        1.07
  YS02006556           JUNCTION     0.90     1.92     8.23     0  02:58        1.91
  YS02006558           JUNCTION     0.94     1.96     8.22     0  02:58        1.95
  YS02001783           JUNCTION     0.52     1.71     7.85     0  02:49        1.46
  YS02001784           JUNCTION     0.54     1.85     7.92     0  02:49        1.40
  YS02001786           JUNCTION     0.48     2.14     8.17     0  02:49        1.26
  YS02001788           JUNCTION     0.41     2.28     8.26     0  02:49        1.12
  YS02001790           JUNCTION     0.50     1.96     7.60     0  02:48        1.29
  YS02001791           JUNCTION     0.45     1.77     7.24     0  02:48        1.27
  YS02001793           JUNCTION     0.57     1.99     6.83     0  02:49        1.80
  WS02004139           JUNCTION     0.61     0.72     5.63     0  04:31        0.72
  WSC                  OUTFALL      0.32     0.39     1.06     0  02:55        0.39
  3                    OUTFALL      0.12     0.21     6.21     0  02:40        0.21
  4                    OUTFALL      0.05     0.16     7.16     0  03:00        0.16
  5                    OUTFALL      0.00     0.00     5.00     0  00:00        0.00
  JK-storage           STORAGE      2.56     5.80     6.60     0  02:49        5.80
  CC-storage           STORAGE      1.04     1.37     8.37     0  03:31        1.37
  XR-storage           STORAGE      7.10     7.72     5.72     0  02:39        7.72
  
  
  *******************
  Node Inflow Summary
  *******************
  
  -------------------------------------------------------------------------------------------------
                                  Maximum  Maximum                  Lateral       Total        Flow
                                  Lateral    Total  Time of Max      Inflow      Inflow     Balance
                                   Inflow   Inflow   Occurrence      Volume      Volume       Error
  Node                 Type           LPS      LPS  days hr:min    10^6 ltr    10^6 ltr     Percent
  -------------------------------------------------------------------------------------------------
  WS02001211           JUNCTION      7.35   382.33     0  01:00       0.207         7.1       0.532
  WS02001212           JUNCTION      0.00   378.97     0  01:01           0        7.06       0.282
  WS02001213           JUNCTION      0.00   378.40     0  01:01           0        7.04       0.351
  WS02003069           JUNCTION      0.32   921.89     0  02:53     0.00902        16.5       0.197
  WS02003072           JUNCTION      0.00   921.29     0  02:54           0        16.4       0.239
  WS02003073           JUNCTION      1.82   922.96     0  02:54      0.0514        16.4       0.276
  WS02003060           JUNCTION     16.53   921.65     0  02:52       0.466        16.5       0.185
  WS02003066           JUNCTION      0.00   670.07     0  03:06           0        9.04       0.051
  WS02003059           JUNCTION      0.00   377.04     0  01:02           0        7.02       0.570
  WS02003067           JUNCTION      0.00   669.99     0  03:06           0        9.05       0.106
  WS02004401           JUNCTION      0.00   672.65     0  03:04           0        9.28       0.225
  WS02004402           JUNCTION      0.00   671.60     0  03:03           0        9.26       0.213
  WS02004403           JUNCTION      0.00   671.44     0  03:04           0        9.24       0.194
  WS02004404           JUNCTION      0.16   671.65     0  03:04     0.00457        9.23       0.148
  WS02004406           JUNCTION      0.00   671.69     0  03:04           0         9.2       0.359
  WS02004409           JUNCTION      0.00   671.61     0  03:04           0        9.16       0.181
  WS02004410           JUNCTION      0.00   671.06     0  03:04           0        9.14       0.206
  WS02004411           JUNCTION      0.00   670.55     0  03:05           0        9.12       0.212
  WS02004412           JUNCTION      0.00   670.27     0  03:05           0         9.1       0.230
  WS02004413           JUNCTION      0.00   670.15     0  03:05           0        9.08       0.339
  WS02004405           JUNCTION      0.04   671.66     0  03:04     0.00107        9.22       0.220
  WS02006109           JUNCTION      1.23   664.85     0  03:02      0.0347        9.34       0.226
  WS02006110           JUNCTION      0.00   664.79     0  03:02           0        9.32       0.199
  WS02006111           JUNCTION      0.00   697.77     0  03:03           0        9.29       0.043
  WS02006112           JUNCTION     14.47   676.98     0  03:02      0.0629        9.35       0.309
  WS02006113           JUNCTION      0.00   665.75     0  03:01           0         9.3       0.091
  WS02006115           JUNCTION      0.00   677.23     0  03:02           0        9.32       0.206
  WS02006116           JUNCTION      0.00   674.02     0  03:03           0         9.3       0.197
  WS02006230           JUNCTION     10.28   401.78     0  04:31        0.29        7.45       0.164
  WS02006231           JUNCTION      0.00   391.45     0  04:31           0        7.17       0.139
  WS02006232           JUNCTION      0.00   391.45     0  04:31           0        7.19       0.206
  WS02006234           JUNCTION      0.00   391.66     0  04:22           0        7.19       0.093
  WS02006235           JUNCTION      0.00   391.64     0  04:21           0        7.23       0.133
  WS02006238           JUNCTION      0.00   313.60     0  07:10           0        5.37       0.124
  WS02006240           JUNCTION      0.00   327.59     0  02:01           0        5.37       0.196
  WS02006242           JUNCTION      0.00   342.76     0  02:01           0        5.37       0.247
  WS02006243           JUNCTION      0.00   355.88     0  02:01           0        5.37       0.061
  WS02006245           JUNCTION      0.00   364.53     0  02:01           0        5.37       0.165
  WS02006247           JUNCTION      0.00   370.83     0  02:00           0        5.38       0.124
  WS02006248           JUNCTION      0.00   376.18     0  02:00           0        5.38       0.078
  WS02006249           JUNCTION      0.00   475.55     0  03:00           0        6.37       0.154
  WS02006239           JUNCTION      0.00   313.35     0  07:10           0        5.37       0.185
  WS02006251           JUNCTION      0.08   476.21     0  03:00     0.00217         6.4       0.141
  WS02006252           JUNCTION      0.00   400.00     0  02:00           0        6.02       0.007
  WS02006253           JUNCTION      1.91    81.00     0  03:01     0.00814       0.385       0.978
  WS02006256           JUNCTION      0.00   600.00     0  02:30           0        7.02       0.036
  WS02004138           JUNCTION      0.00   379.99     0  04:10           0        6.93       0.065
  WS02004407           JUNCTION      0.00   671.93     0  03:04           0        9.16       0.079
  WS02006228           JUNCTION      0.00   663.65     0  03:02           0        9.32       0.152
  WS02006229           JUNCTION      0.00   662.21     0  03:02           0        9.33       0.124
  WS02006280           JUNCTION      0.00   375.54     0  03:02           0        1.89       0.004
  WS02006284           JUNCTION      0.10   375.54     0  03:02      0.0027        1.89       0.064
  WS02006287           JUNCTION      0.00   375.27     0  03:01           0        1.89       0.038
  WSF200               JUNCTION      0.00   670.08     0  03:06           0        9.04       0.048
  HS02004901           JUNCTION     17.47    17.47     0  03:01      0.0757      0.0759       2.380
  HS02004881           JUNCTION      7.55    79.19     0  03:01      0.0331       0.357       0.086
  HS02004876           JUNCTION     14.15    72.10     0  03:01      0.0636       0.324       0.171
  HS02004870           JUNCTION     14.17    58.27     0  03:01      0.0626       0.261       0.043
  HS02004862           JUNCTION     13.95    44.46     0  03:01      0.0685       0.198       0.089
  HS02004856           JUNCTION     10.64    30.79     0  03:01      0.0471       0.131       1.117
  HS02004852           JUNCTION      0.00    20.44     0  03:01           0       0.084       0.069
  HS02004848           JUNCTION     32.07    32.07     0  03:01       0.151       0.151       0.033
  HS02004842           JUNCTION      0.00    11.42     0  03:01           0      0.0801      19.389
  HS02004837           JUNCTION     30.75    41.91     0  03:01       0.288       0.355       0.230
  HS02004830           JUNCTION      0.15    41.84     0  03:01     0.00423       0.346       0.359
  HS02004824           JUNCTION     40.25    81.79     0  03:01       0.197       0.542       0.100
  HS02004817           JUNCTION      0.60    82.18     0  03:01      0.0169       0.558       3.079
  HS02004807           JUNCTION     26.15   107.24     0  03:01       0.115       0.657       0.656
  HS02004802           JUNCTION      0.00   106.49     0  03:01           0       0.653       0.617
  HS02004799           JUNCTION     21.02   227.51     0  03:01      0.0932        1.06       0.236
  HS02004792           JUNCTION     88.55   207.32     0  03:01       0.396       0.966       0.043
  HS02004788           JUNCTION     30.78   119.37     0  03:01       0.177       0.571       0.069
  HS02004785           JUNCTION      0.15    89.79     0  03:01     0.00423       0.396       0.125
  HS02004777           JUNCTION      0.03    90.24     0  03:01    0.000846       0.397       1.326
  HS02004770           JUNCTION     73.89    90.93     0  03:01       0.324       0.398       0.787
  HS02004480           JUNCTION      0.00   269.27     0  03:01           0        1.25       0.099
  HS02004479           JUNCTION      0.00    42.82     0  03:02           0       0.204       0.360
  HS02004478           JUNCTION      0.00   375.17     0  03:01           0        1.89       0.018
  YS02001745           JUNCTION    297.18   436.44     0  02:44        2.34        2.35       0.376
  YS02001748           JUNCTION      0.04   633.13     0  02:44     0.00127        2.34       0.977
  YS02001751           JUNCTION      0.01   407.12     0  02:41     0.00031        2.31       1.013
  YS02001754           JUNCTION      0.26   310.61     0  03:01     0.00733        2.29       1.089
  YS02001762           JUNCTION      0.00   354.61     0  02:57           0        1.93       1.087
  YS02001765           JUNCTION      0.00   354.49     0  02:57           0        1.93       1.260
  YS02001767           JUNCTION      0.54   354.52     0  02:57      0.0151        1.96       1.855
  YS02001770           JUNCTION    373.02   373.02     0  03:01        2.63        2.66       1.201
  YS02001774           JUNCTION      0.00   252.17     0  03:35           0       0.712       3.642
  YS02001779           JUNCTION      0.01   252.55     0  03:35    0.000141       0.678       2.321
  YS02001882           JUNCTION      0.00    50.09     0  02:49           0      0.0176      14.220
  YS02001884           JUNCTION      0.00    44.57     0  02:49           0      0.0531      12.985
  YS02001759           JUNCTION    359.84   698.55     0  02:58        2.43        4.31       0.530
  YS02001887           JUNCTION    453.35   453.38     0  03:01         2.8        2.83       0.299
  YS02001890           JUNCTION      0.00   453.49     0  03:01           0        2.79       0.329
  YS02001898           JUNCTION      0.00   453.52     0  03:01           0        2.77       0.118
  YS02001901           JUNCTION      0.00   453.73     0  03:01           0        2.77       0.244
  YS02001904           JUNCTION      0.00   453.57     0  03:01           0        2.77       0.224
  YS02001907           JUNCTION      0.00   909.81     0  02:56           0        6.12       0.389
  YS02001910           JUNCTION      0.00   484.85     0  02:56           0        3.37       0.351
  YS02001915           JUNCTION    263.65   484.72     0  02:56        1.96         3.4       0.176
  YS02001918           JUNCTION      0.00   239.22     0  02:56           0        1.46       0.123
  YS02001619           JUNCTION    257.27   257.27     0  03:01        1.95        1.95       0.620
  YS02001629           JUNCTION      0.00   215.59     0  02:51           0        1.65       1.739
  YS02001641           JUNCTION      0.00   455.77     0  02:51           0        3.86       0.546
  YS02001644           JUNCTION    282.70   961.30     0  03:29        2.25         7.6       0.344
  YS02001652           JUNCTION      0.00   378.47     0  03:01           0        2.04       1.141
  YS02001655           JUNCTION      0.15   461.69     0  02:36     0.00434        2.07       1.212
  YS02001920           JUNCTION      2.87   239.18     0  02:56      0.0809        1.44       0.203
  YS02001923           JUNCTION      0.04   278.39     0  02:56     0.00106        1.35       0.040
  YS02001926           JUNCTION      0.05   196.85     0  03:01     0.00147        1.34       0.255
  YS02001929           JUNCTION    129.40   129.40     0  03:01        1.34        1.34       0.041
  YS02001658           JUNCTION      0.00   663.54     0  02:43           0         2.1       1.024
  YS02001661           JUNCTION      0.00   699.65     0  02:57           0        2.82      -0.164
  YS02001664           JUNCTION    327.80   351.50     0  02:56        2.09        2.82       0.167
  YS02001622           JUNCTION      0.00   257.38     0  03:01           0        1.94       1.657
  YS02001633           JUNCTION    287.40   455.80     0  02:51        2.32        3.91       0.817
  YS02001649           JUNCTION      0.00   969.61     0  02:52           0        5.08       0.734
  YS02001757           JUNCTION      0.00  1841.36     0  02:52           0          10       0.930
  YS02001895           JUNCTION      0.00   453.65     0  03:01           0        2.78       0.175
  YS02001625           JUNCTION      0.00   257.36     0  03:01           0         1.9       2.048
  YS02163301           JUNCTION      0.00   224.78     0  02:42           0        1.62       1.487
  YS02163601           JUNCTION      0.11   455.87     0  02:51      0.0031        3.88       0.777
  YS02164001           JUNCTION      0.00   455.73     0  02:51           0        3.86       0.515
  YS02001647           JUNCTION      0.00   692.27     0  02:51           0        3.88       0.730
  YSB1154              JUNCTION     25.19    25.19     0  03:01       0.113       0.114       1.285
  YSB6556              JUNCTION      0.00    24.91     0  03:01           0       0.115       1.100
  YSB1174              JUNCTION     19.06    19.06     0  03:01      0.0821      0.0827       1.581
  YSB1171              JUNCTION      0.00    43.19     0  03:01           0       0.203       3.220
  YS02006553           JUNCTION      0.00   667.11     0  03:17           0        5.91       0.269
  YS02006561           JUNCTION      0.00   964.08     0  03:00           0        8.43       0.005
  YS02006556           JUNCTION      0.00   667.10     0  03:17           0        5.92       0.191
  YS02006558           JUNCTION    392.87   964.29     0  03:00        2.57        8.46       0.066
  YS02001783           JUNCTION      0.00   964.18     0  03:00           0        8.43       0.028
  YS02001784           JUNCTION      1.06   965.08     0  03:00      0.0299        8.46       0.044
  YS02001786           JUNCTION      0.06   965.18     0  03:00     0.00159        8.46       0.041
  YS02001788           JUNCTION      0.07   965.25     0  03:00       0.002        8.46       0.024
  YS02001790           JUNCTION      0.15   965.34     0  03:00     0.00437        8.46       0.030
  YS02001791           JUNCTION      0.00   965.32     0  03:00           0        8.46       0.014
  YS02001793           JUNCTION      0.00   965.48     0  03:00           0        8.47       0.007
  WS02004139           JUNCTION      0.32   379.84     0  00:40     0.00905        6.93       0.556
  WSC                  OUTFALL       0.00   922.81     0  02:55           0        16.4       0.000
  3                    OUTFALL       0.00   534.24     0  02:40           0        5.13       0.000
  4                    OUTFALL       0.00   230.25     0  03:00           0       0.979       0.000
  5                    OUTFALL       0.00     0.00     0  00:00           0           0       0.000 ltr
  JK-storage           STORAGE       0.00   965.52     0  03:00           0        8.62      -5.853
  CC-storage           STORAGE       0.00  1841.46     0  02:52           0        9.19      -0.230
  XR-storage           STORAGE     690.11   690.11     0  03:01        9.61        10.2      -0.002
  
  
  **********************
  Node Surcharge Summary
  **********************
  
  Surcharging occurs when water rises above the top of the highest conduit.
  ---------------------------------------------------------------------
                                               Max. Height   Min. Depth
                                   Hours       Above Crown    Below Rim
  Node                 Type      Surcharged         Meters       Meters
  ---------------------------------------------------------------------
  WS02004402           JUNCTION        0.01          0.001        1.739
  WS02004403           JUNCTION        0.03          0.003        2.027
  WS02004404           JUNCTION        0.85          0.064        2.716
  WS02004406           JUNCTION        0.52          0.035        2.415
  WS02004405           JUNCTION        0.68          0.051        2.749
  WS02006109           JUNCTION        3.31          0.294        1.526
  WS02006110           JUNCTION        1.21          0.113        1.737
  WS02006112           JUNCTION        1.29          0.204        1.476
  WS02006230           JUNCTION        0.81          0.102        1.468
  WS02006231           JUNCTION        1.12          0.130        1.400
  WS02006232           JUNCTION        3.59          0.265        1.215
  WS02006234           JUNCTION        1.22          0.155        1.085
  WS02006235           JUNCTION        2.47          0.189        1.101
  WS02006238           JUNCTION        2.97          0.209        1.221
  WS02006240           JUNCTION        1.16          0.111        1.279
  WS02006242           JUNCTION        2.39          0.146        0.674
  WS02006243           JUNCTION        0.77          0.047        0.723
  WS02006245           JUNCTION        0.09          0.011        0.839
  WS02006247           JUNCTION        0.12          0.015        0.745
  WS02006239           JUNCTION        1.44          0.140        1.150
  WS02006252           JUNCTION        3.41          0.194        0.906
  WS02006228           JUNCTION        3.13          0.353        1.847
  YS02001748           JUNCTION        4.81          1.190        0.000
  YS02001751           JUNCTION        5.14          1.200        0.000
  YS02001754           JUNCTION        5.33          1.150        0.000
  YS02001762           JUNCTION        5.63          1.088        0.062
  YS02001765           JUNCTION        5.60          1.038        0.062
  YS02001767           JUNCTION        5.48          0.999        0.031
  YS02001770           JUNCTION        5.40          0.920        0.000
  YS02001774           JUNCTION        5.63          1.029        0.021
  YS02001779           JUNCTION        5.29          0.680        0.000
  YS02001882           JUNCTION        0.74          0.630        0.200
  YS02001884           JUNCTION        0.76          0.664        0.206
  YS02001759           JUNCTION        5.66          1.126        0.084
  YS02001887           JUNCTION        0.87          0.748        0.202
  YS02001890           JUNCTION        0.91          0.760        0.000
  YS02001898           JUNCTION        0.69          0.535        0.205
  YS02001901           JUNCTION        0.82          0.674        0.196
  YS02001904           JUNCTION        0.79          0.637        0.213
  YS02001907           JUNCTION        1.48          0.950        0.000
  YS02001910           JUNCTION        0.96          0.784        0.316
  YS02001915           JUNCTION        0.72          0.594        0.406
  YS02001918           JUNCTION        0.49          0.277        0.533
  YS02001619           JUNCTION        5.16          0.610        0.000
  YS02001629           JUNCTION        5.17          0.470        0.000
  YS02001641           JUNCTION        5.61          0.968        0.132
  YS02001644           JUNCTION        5.62          0.920        0.000
  YS02001652           JUNCTION        5.35          1.130        0.000
  YS02001655           JUNCTION        5.16          1.200        0.000
  YS02001920           JUNCTION        0.52          0.356        0.784
  YS02001658           JUNCTION        4.90          1.300        0.000
  YS02001661           JUNCTION        0.21          1.390        0.000
  YS02001622           JUNCTION        5.19          0.620        0.000
  YS02001633           JUNCTION        5.60          0.977        0.083
  YS02001649           JUNCTION        5.64          1.050        0.000
  YS02001757           JUNCTION        5.74          1.210        0.000
  YS02001895           JUNCTION        0.71          0.563        0.187
  YS02001625           JUNCTION        5.36          0.780        0.000
  YS02163301           JUNCTION        5.49          0.949        0.081
  YS02163601           JUNCTION        5.64          1.044        0.036
  YS02164001           JUNCTION        5.61          0.973        0.127
  YS02001647           JUNCTION        5.35          0.821        0.079
  YS02006553           JUNCTION        1.55          0.965        0.225
  YS02006561           JUNCTION        0.61          0.302        0.848
  YS02006556           JUNCTION        1.20          0.879        0.471
  YS02006558           JUNCTION        1.16          0.857        0.543
  YS02001783           JUNCTION        1.13          0.907        0.693
  YS02001784           JUNCTION        1.15          1.051        0.439
  YS02001786           JUNCTION        1.10          1.342        0.088
  YS02001788           JUNCTION        1.08          1.480        0.000
  YS02001790           JUNCTION        1.54          1.157        0.000
  YS02001791           JUNCTION        1.57          0.966        0.954
  YS02001793           JUNCTION        1.65          0.995        1.605
  
  
  *********************
  Node Flooding Summary
  *********************
  
  Flooding refers to all water that overflows a node, whether it ponds or not.
  --------------------------------------------------------------------------
                                                             Total   Maximum
                                 Maximum   Time of Max       Flood    Ponded
                        Hours       Rate    Occurrence      Volume     Depth
  Node                 Flooded       LPS   days hr:min    10^6 ltr    Meters
  --------------------------------------------------------------------------
  YS02001748              0.01    264.25      0  02:44       0.001     0.000
  YS02001751              0.01    177.36      0  02:41       0.000     0.000
  YS02001754              0.01     17.60      0  02:45       0.000     0.000
  YS02001770              0.01      9.27      0  02:45       0.000     0.000
  YS02001779              2.20    252.48      0  03:35       0.654     0.000
  YS02001890              0.01      3.35      0  02:54       0.000     0.000
  YS02001907              0.35    330.75      0  03:00       0.194     0.000
  YS02001619              0.01     47.95      0  02:43       0.000     0.000
  YS02001629              0.01     34.36      0  02:43       0.000     0.000
  YS02001644              3.51    961.21      0  03:29       5.208     0.000
  YS02001652              0.01     23.60      0  03:09       0.000     0.000
  YS02001655              0.01    223.35      0  02:36       0.000     0.000
  YS02001658              0.01    303.59      0  02:43       0.000     0.000
  YS02001661              0.01    185.01      0  03:05       0.001     0.000
  YS02001622              0.01     31.20      0  02:44       0.000     0.000
  YS02001649              0.09     52.64      0  03:10       0.005     0.000
  YS02001757              0.01     25.88      0  02:46       0.000     0.000
  YS02001625              0.80    166.68      0  03:01       0.223     0.000
  YS02001788              0.01    100.27      0  02:49       0.000     0.000
  YS02001790              0.01    129.86      0  02:48       0.000     0.000
  JK-storage              1.44    698.45      0  03:50       2.068     0.000
  XR-storage              3.81    585.51      0  03:00       2.402     0.000
  
  
  **********************
  Storage Volume Summary
  **********************
  
  --------------------------------------------------------------------------------------------------
                         Average     Avg  Evap Exfil       Maximum     Max    Time of Max    Maximum
                          Volume    Pcnt  Pcnt  Pcnt        Volume    Pcnt     Occurrence    Outflow
  Storage Unit           1000 m3    Full  Loss  Loss       1000 m3    Full    days hr:min        LPS
  --------------------------------------------------------------------------------------------------
  JK-storage               0.129      44     0     0         0.291     100       0  02:49     600.00
  CC-storage               2.895      18     0     0         3.824      24       0  03:31     400.00
  XR-storage               0.852      92     0     0         0.926     100       0  02:39     379.99
  
  
  ***********************
  Outfall Loading Summary
  ***********************
  
  -----------------------------------------------------------
                         Flow       Avg       Max       Total
                         Freq      Flow      Flow      Volume
  Outfall Node           Pcnt       LPS       LPS    10^6 ltr
  -----------------------------------------------------------
  WSC                   99.99    663.36    922.81      16.387
  3                     88.18    270.99    534.24       5.129
  4                     56.86     77.06    230.25       0.979
  5                      0.00      0.00      0.00       0.000
  -----------------------------------------------------------
  System                61.26   1011.40   1531.35      22.496
  
  
  ********************
  Link Flow Summary
  ********************
  
  -----------------------------------------------------------------------------
                                 Maximum  Time of Max   Maximum    Max/    Max/
                                  |Flow|   Occurrence   |Veloc|    Full    Full
  Link                 Type          LPS  days hr:min     m/sec    Flow   Depth
  -----------------------------------------------------------------------------
  WS02003066WSF200     CONDUIT    670.08     0  03:06      2.92    0.11    0.26
  WS02006287WS02006284 CONDUIT    375.44     0  03:02      1.98    0.17    0.29
  WS02006284WS02006280 CONDUIT    375.54     0  03:02      2.22    0.16    0.27
  WS02006280WS02006229 CONDUIT    375.58     0  03:02      3.58    0.08    0.19
  WS02006229WS02006228 CONDUIT    663.65     0  03:02      1.32    2.20    1.00
  WS02006256WS02006235 CONDUIT    166.25     0  00:01      2.58    1.76    1.00
  WS02006253WS02006251 CONDUIT     87.71     0  03:01      0.46    0.26    1.00
  WS02006252WS02006251 CONDUIT    400.35     0  07:07      3.19    1.47    1.00
  WS02006251WS02006249 CONDUIT    475.55     0  03:00      1.25    1.37    0.97
  WS02006249WS02006248 CONDUIT    376.18     0  02:00      1.22    2.06    0.92
  WS02006248WS02006247 CONDUIT    370.83     0  02:00      1.20    0.81    0.97
  WS02006247WS02006245 CONDUIT    364.53     0  02:01      1.16    2.89    1.00
  WS02006245WS02006243 CONDUIT    355.88     0  02:01      1.21    1.05    1.00
  WS02006243WS02006242 CONDUIT    342.76     0  02:01      1.04    0.73    1.00
  WS02006242WS02006240 CONDUIT    327.59     0  02:01      0.93    1.30    1.00
  WS02006240WS02006239 CONDUIT    313.35     0  07:10      0.90    0.99    1.00
  WS02006239WS02006238 CONDUIT    313.60     0  07:10      0.84    1.00    1.00
  WS02006238WS02006235 CONDUIT    313.61     0  07:10      1.25    0.70    1.00
  WS02006235WS02006234 CONDUIT    391.66     0  04:22      1.04    4.13    1.00
  WS02006234WS02006232 CONDUIT    391.45     0  04:31      1.13    0.79    1.00
  WS02006232WS02006231 CONDUIT    391.45     0  04:31      1.06    0.82    1.00
  WS02006231WS02006230 CONDUIT    391.50     0  04:31      1.32    5.94    1.00
  WS02006230WS02006229 CONDUIT    401.88     0  04:31      1.04    8.94    1.00
  WS02006228WS02006109 CONDUIT    663.62     0  03:02      1.32    2.90    1.00
  WS02006116WS02004401 CONDUIT    672.65     0  03:04      0.86    0.93    0.98
  WS02006115WS02006116 CONDUIT    674.02     0  03:03      0.91    0.87    0.91
  WS02006113WS02006111 CONDUIT    697.77     0  03:03      2.60    0.84    0.55
  WS02006112WS02006115 CONDUIT    677.23     0  03:02      0.88    0.40    0.95
  WS02006111WS02006112 CONDUIT    665.45     0  03:03      1.72    0.32    0.72
  WS02006110WS02006113 CONDUIT    665.75     0  03:01      1.51    0.61    0.82
  WS02006109WS02006110 CONDUIT    664.79     0  03:02      1.32    1.28    1.00
  WS02004411WS02004412 CONDUIT    670.27     0  03:05      1.04    0.95    0.77
  WS02004401WS02004402 CONDUIT    671.60     0  03:03      0.86    0.81    0.99
  WS02004413WS02003067 CONDUIT    669.99     0  03:06      1.26    0.29    0.64
  WS02004412WS02004413 CONDUIT    670.15     0  03:05      0.95    0.45    0.84
  WS02004410WS02004411 CONDUIT    670.55     0  03:05      1.04    0.92    0.77
  WS02004409WS02004410 CONDUIT    671.06     0  03:04      1.04    0.87    0.76
  WS02004407WS02004409 CONDUIT    671.61     0  03:04      1.53    0.24    0.55
  WS02004406WS02004407 CONDUIT    671.93     0  03:04      1.21    0.30    0.67
  WS02004405WS02004406 CONDUIT    671.69     0  03:04      0.86    1.32    1.00
  WS02004404WS02004405 CONDUIT    671.63     0  03:04      0.86    6.58    1.00
  WS02004403WS02004404 CONDUIT    671.49     0  03:04      0.85    0.49    1.00
  WS02004402WS02004403 CONDUIT    671.44     0  03:04      0.85    0.96    1.00
  WS02004139WS02001211 CONDUIT    374.99     0  01:00      0.69    0.47    0.58
  WS02004138WS02004139 CONDUIT    379.52     0  00:40      2.94    0.08    0.43
  WS02003067WS02003066 CONDUIT    670.07     0  03:06      1.37    0.21    0.45
  WS02001213WS02003059 CONDUIT    377.04     0  01:02      0.68    0.62    0.74
  WS02001212WS02001213 CONDUIT    378.40     0  01:01      1.31    0.58    0.44
  WS02001211WS02001212 CONDUIT    378.97     0  01:01      0.77    0.29    0.63
  WS02003072WS02003073 CONDUIT    921.14     0  02:54      1.71    1.99    0.48
  WS02003069WS02003072 CONDUIT    921.29     0  02:54      1.61    0.44    0.50
  WS02003060WS02003069 CONDUIT    921.57     0  02:53      1.86    0.36    0.45
  WS02003059WS02003060 CONDUIT    375.17     0  01:03      0.93    0.24    0.64
  HS02004901HS02004770 CONDUIT     17.71     0  03:01      0.07    0.07    0.39
  HS02004876HS02004881 CONDUIT     71.90     0  03:01      0.92    0.76    0.11
  HS02004870HS02004876 CONDUIT     58.03     0  03:01      0.63    0.04    0.13
  HS02004842HS02004848 CONDUIT     11.42     0  03:01      0.05    0.01    0.30
  HS02004837HS02004842 CONDUIT     11.94     0  03:02      0.41    0.01    0.32
  HS02004830HS02004837 CONDUIT     41.69     0  03:01      0.56    0.04    0.11
  HS02004824HS02004830 CONDUIT     41.67     0  03:01      0.58    0.05    0.10
  HS02004817HS02004824 CONDUIT     81.58     0  03:01      0.25    0.04    0.47
  HS02004770HS02004777 CONDUIT     90.21     0  03:01      0.32    0.16    0.41
  HS02004799HS02004480 CONDUIT    226.97     0  03:01      0.78    0.29    0.42
  HS02004792HS02004799 CONDUIT    206.60     0  03:01      0.88    0.13    0.33
  HS02004788HS02004792 CONDUIT    118.94     0  03:01      1.01    0.08    0.17
  HS02004785HS02004788 CONDUIT     89.52     0  03:02      0.66    0.67    0.19
  HS02004777HS02004785 CONDUIT     89.64     0  03:01      0.38    0.11    0.33
  HS02004480HS02004478 CONDUIT    269.12     0  03:01      1.20    1.13    0.32
  HS02004479HS02004480 CONDUIT     44.17     0  03:02      0.23    0.04    0.40
  HS02004862HS02004870 CONDUIT     44.23     0  03:01      0.64    0.05    0.10
  HS02004848HS02004852 CONDUIT     20.44     0  03:01      0.44    0.02    0.07
  HS02004856HS02004862 CONDUIT     30.57     0  03:01      0.47    0.03    0.09
  HS02004852HS02004856 CONDUIT     20.26     0  03:01      0.24    0.02    0.12
  HS02004802HS02004478 CONDUIT    106.59     0  03:02      0.45    0.09    0.35
  HS02004478WS02006287 CONDUIT    375.27     0  03:01      1.68    0.11    0.25
  HS02004817HS02004807 CONDUIT     82.18     0  03:01      0.19    0.05    0.62
  HS02004807HS02004802 CONDUIT    106.49     0  03:01      0.38    0.20    0.40
  YS02001759YS02001757 CONDUIT    698.61     0  02:58      0.89    0.50    1.00
  YS02001762YS02001759 CONDUIT    354.12     0  02:57      0.45    0.41    1.00
  YS02001765YS02001762 CONDUIT    354.61     0  02:57      0.45    0.33    1.00
  YS02001770YS02001767 CONDUIT    353.99     0  02:57      0.45    1.40    1.00
  YS02001774YS02001770 CONDUIT    252.17     0  03:35      0.32    0.16    1.00
  YS02001779YS02001774 CONDUIT    252.55     0  03:35      0.32    0.13    1.00
  YS02001649YS02001757 CONDUIT    969.96     0  02:52      1.23    0.59    1.00
  YS02001767YS02001765 CONDUIT    354.49     0  02:57      0.45    0.45    1.00
  YS02006561YS02001783 CONDUIT    964.18     0  03:00      2.16    0.50    1.00
  YS02001783YS02001784 CONDUIT    964.02     0  03:00      1.92    1.33    1.00
  YS02001784YS02001785 CONDUIT    965.13     0  03:00      1.92    2.25    1.00
  YS02001788YS02001790 CONDUIT    965.19     0  03:00      2.44    0.71    1.00
  YS02001790YS02001791 CONDUIT    965.32     0  03:00      2.98    1.05    1.00
  YS02001791YS02001793 CONDUIT    965.48     0  03:00      5.88    0.41    1.00
  YS02001910YS02001907 CONDUIT    484.84     0  02:56      0.62    0.27    1.00
  YS02001786YS02001788 CONDUIT    965.18     0  03:00      2.31    1.86    1.00
  YS02001915YS02001910 CONDUIT    484.85     0  02:56      0.62    0.24    1.00
  YS02001918YS02001915 CONDUIT    240.19     0  02:56      0.44    0.13    1.00
  YS02001923YS02001920 CONDUIT    236.31     0  02:56      0.68    0.11    1.00
  YS02001926YS02001923 CONDUIT    278.35     0  02:56      0.79    0.40    0.92
  YS02001929YS02001926 CONDUIT    196.80     0  03:01      0.85    0.09    0.81
  YS02001920YS02001918 CONDUIT    239.22     0  02:56      0.67    0.23    1.00
  YS02001629YS02163301 CONDUIT    224.78     0  02:42      0.29    0.28    1.00
  YS02001619YS02001622 CONDUIT    257.38     0  03:01      0.61    0.38    1.00
  YS02001622YS02001625 CONDUIT    257.36     0  03:01      0.33    0.14    1.00
  YS02001625YS02001629 CONDUIT    215.59     0  02:51      0.27    0.10    1.00
  YS02163301YS02001633 CONDUIT    224.62     0  02:42      0.29    0.21    1.00
  YS02163601YS02164001 CONDUIT    455.73     0  02:51      0.58    0.40    1.00
  YS02164001YS02001641 CONDUIT    455.77     0  02:51      0.58    0.62    1.00
  YS02001641YS02001644 CONDUIT    455.61     0  02:51      0.58    1.47    1.00
  YS02001647YS02001649 CONDUIT    692.21     0  02:51      0.88    0.37    1.00
  YS02006553YS02006556 CONDUIT    667.10     0  03:17      0.85    0.57    1.00
  YS02006556YS02006558 CONDUIT    667.45     0  03:17      0.85    0.53    1.00
  YSB6556YSB1171       CONDUIT     24.81     0  03:03      0.09    0.03    0.67
  YS02001907YS02006553 CONDUIT    667.11     0  03:17      0.74    0.78    1.00
  YS02006558YS02006561 CONDUIT    964.08     0  03:00      3.48    2.13    1.00
  YS02001633YS02163601 CONDUIT    455.76     0  02:51      0.58    0.48    1.00
  YS02001644YS02001647 CONDUIT    692.27     0  02:51      0.88    0.41    1.00
  YS02001745YS02001748 CONDUIT    633.09     0  02:44      1.48    0.24    0.94
  YS02001748YS02001751 CONDUIT    407.11     0  02:41      1.05    0.21    1.00
  YS02001751YS02001754 CONDUIT    310.35     0  03:01      0.88    0.15    1.00
  YS02001754YS02001757 CONDUIT    310.60     0  03:01      0.40    0.13    1.00
  YS02001882YS02001884 CONDUIT     50.09     0  02:49      0.09    0.06    1.00
  YS02001884YS02001887 CONDUIT     44.57     0  02:49      0.06    0.06    1.00
  YS02001890YS02001895 CONDUIT    453.65     0  03:01      0.58    0.21    1.00
  YS02001895YS02001898 CONDUIT    453.52     0  03:01      0.58    0.79    1.00
  YS02001898YS02001901 CONDUIT    453.73     0  03:01      0.58    0.29    1.00
  YS02001901YS02001904 CONDUIT    453.57     0  03:01      0.58    0.70    1.00
  YS02001904YS02001907 CONDUIT    453.58     0  03:01      0.58    0.16    1.00
  YS02001887YS02001890 CONDUIT    453.49     0  03:01      0.58    0.78    1.00
  YS02001652YS02001649 CONDUIT    378.52     0  03:01      0.50    0.19    1.00
  YS02001655YS02001652 CONDUIT    378.47     0  03:01      0.93    0.18    1.00
  YS02001658YS02001655 CONDUIT    461.54     0  02:36      1.21    0.20    1.00
  YS02001661YS02001658 CONDUIT    663.54     0  02:43      1.56    0.26    1.00
  YS02001664YS02001661 CONDUIT    699.65     0  02:57      1.58    0.22    0.71
  YSB1154YSB6556       CONDUIT     24.91     0  03:01      0.18    0.04    0.56
  YSB1174YSB1171       CONDUIT     18.78     0  03:01      0.07    0.03    0.68
  YSB1171HS02004479    CONDUIT     42.82     0  03:02      0.54    0.03    0.53
  HS02004881HS02006253 CONDUIT     79.15     0  03:01      1.60    0.02    0.31
  YS02001793JiankangQianchi CONDUIT    965.52     0  03:00     13.02    0.08    1.00
  YS02001757CaochengTiaoxuchi CONDUIT   1841.46     0  02:52      2.58    0.81    1.00
  WSF200WS02003060     CONDUIT    669.32     0  03:06      1.98    0.15    0.36
  1                    CONDUIT    922.81     0  02:55      3.26    0.32    0.39
  2                    CONDUIT    230.25     0  03:00      6.05    0.55    0.53
  3                    CONDUIT    534.24     0  02:40      9.90    0.85    0.71
  4                    CONDUIT      0.00     0  00:00      0.00    0.00    0.00
  CC-Pump-1            PUMP       200.00     0  01:59              1.00
  CC-Pump-2            PUMP       200.00     0  02:00              1.00
  JK-Pump-1            PUMP       300.00     0  00:00              1.00
  JK-Pump-2            PUMP       300.00     0  02:20              1.00
  XR-Pump-1            PUMP        95.00     0  00:00              1.00
  XR-Pump-2            PUMP        95.00     0  00:30              1.00
  XR-Pump-3            PUMP        95.00     0  00:00              1.00
  XR-Pump-4            PUMP        95.00     0  00:40              1.00
  
  
  ***************************
  Flow Classification Summary
  ***************************
  
  -------------------------------------------------------------------------------------
                      Adjusted    ---------- Fraction of Time in Flow Class ---------- 
                       /Actual         Up    Down  Sub   Sup   Up    Down  Norm  Inlet 
  Conduit               Length    Dry  Dry   Dry   Crit  Crit  Crit  Crit  Ltd   Ctrl  
  -------------------------------------------------------------------------------------
  WS02003066WSF200        1.00   0.04  0.02  0.00  0.00  0.95  0.00  0.00  0.61  0.00
  WS02006287WS02006284    1.00   0.03  0.01  0.00  0.59  0.37  0.00  0.00  0.65  0.00
  WS02006284WS02006280    1.00   0.04  0.00  0.00  0.00  0.00  0.00  0.96  0.00  0.00
  WS02006280WS02006229    1.00   0.04  0.00  0.00  0.00  0.00  0.00  0.96  0.00  0.00
  WS02006229WS02006228    1.00   0.00  0.00  0.00  0.99  0.00  0.00  0.01  0.00  0.00
  WS02006256WS02006235    1.00   0.00  0.00  0.00  1.00  0.00  0.00  0.00  0.00  0.00
  WS02006253WS02006251    1.00   0.03  0.01  0.00  0.96  0.00  0.00  0.00  0.00  0.00
  WS02006252WS02006251    1.00   0.06  0.00  0.00  0.00  0.00  0.94  0.00  0.00  0.00
  WS02006251WS02006249    1.00   0.00  0.00  0.00  1.00  0.00  0.00  0.00  0.22  0.00
  WS02006249WS02006248    1.00   0.00  0.02  0.00  0.93  0.00  0.05  0.00  0.00  0.00
  WS02006248WS02006247    1.00   0.02  0.00  0.00  0.98  0.00  0.00  0.00  0.10  0.00
  WS02006247WS02006245    1.00   0.02  0.00  0.00  0.98  0.00  0.00  0.00  0.00  0.00
  WS02006245WS02006243    1.00   0.01  0.00  0.00  0.96  0.00  0.00  0.03  0.01  0.00
  WS02006243WS02006242    1.00   0.01  0.00  0.00  0.99  0.00  0.00  0.00  0.20  0.00
  WS02006242WS02006240    1.00   0.00  0.00  0.00  1.00  0.00  0.00  0.00  0.00  0.00
  WS02006240WS02006239    1.00   0.00  0.00  0.00  0.97  0.00  0.00  0.03  0.01  0.00
  WS02006239WS02006238    1.00   0.00  0.00  0.00  1.00  0.00  0.00  0.00  0.01  0.00
  WS02006238WS02006235    1.00   0.00  0.00  0.00  1.00  0.00  0.00  0.00  0.00  0.00
  WS02006235WS02006234    1.00   0.00  0.00  0.00  0.97  0.00  0.03  0.00  0.00  0.00
  WS02006234WS02006232    1.00   0.00  0.00  0.00  1.00  0.00  0.00  0.00  0.05  0.00
  WS02006232WS02006231    1.00   0.00  0.00  0.00  0.99  0.00  0.00  0.00  0.00  0.00
  WS02006231WS02006230    1.00   0.00  0.00  0.00  0.84  0.00  0.16  0.00  0.00  0.00
  WS02006230WS02006229    1.00   0.00  0.00  0.00  0.99  0.00  0.00  0.01  0.01  0.00
  WS02006228WS02006109    1.00   0.00  0.00  0.00  1.00  0.00  0.00  0.00  0.00  0.00
  WS02006116WS02004401    1.00   0.02  0.00  0.00  0.98  0.00  0.00  0.00  0.00  0.00
  WS02006115WS02006116    1.00   0.02  0.00  0.00  0.97  0.00  0.00  0.01  0.00  0.00
  WS02006113WS02006111    1.00   0.02  0.00  0.00  0.00  0.98  0.00  0.00  0.09  0.00
  WS02006112WS02006115    1.00   0.02  0.00  0.00  0.98  0.00  0.00  0.00  0.00  0.00
  WS02006111WS02006112    1.00   0.02  0.00  0.00  0.98  0.00  0.00  0.00  0.90  0.00
  WS02006110WS02006113    1.00   0.01  0.01  0.00  0.98  0.00  0.00  0.00  0.00  0.00
  WS02006109WS02006110    1.00   0.00  0.01  0.00  0.98  0.00  0.01  0.00  0.00  0.00
  WS02004411WS02004412    1.00   0.03  0.00  0.00  0.97  0.00  0.00  0.00  0.00  0.00
  WS02004401WS02004402    1.00   0.02  0.00  0.00  0.98  0.00  0.00  0.00  0.00  0.00
  WS02004413WS02003067    1.00   0.04  0.01  0.00  0.00  0.00  0.95  0.00  0.00  0.00
  WS02004412WS02004413    1.00   0.03  0.00  0.00  0.97  0.00  0.00  0.00  0.03  0.00
  WS02004410WS02004411    1.00   0.03  0.00  0.00  0.97  0.00  0.00  0.00  0.03  0.00
  WS02004409WS02004410    1.00   0.03  0.00  0.00  0.97  0.00  0.00  0.00  0.03  0.00
  WS02004407WS02004409    1.00   0.03  0.00  0.00  0.96  0.00  0.00  0.00  0.89  0.00
  WS02004406WS02004407    1.00   0.00  0.03  0.00  0.97  0.00  0.00  0.00  0.00  0.00
  WS02004405WS02004406    1.00   0.00  0.00  0.00  1.00  0.00  0.00  0.00  0.00  0.00
  WS02004404WS02004405    1.00   0.00  0.00  0.00  1.00  0.00  0.00  0.00  0.00  0.00
  WS02004403WS02004404    1.00   0.00  0.02  0.00  0.98  0.00  0.00  0.00  0.01  0.00
  WS02004402WS02004403    1.00   0.02  0.00  0.00  0.98  0.00  0.00  0.00  0.00  0.00
  WS02004139WS02001211    1.00   0.00  0.00  0.00  1.00  0.00  0.00  0.00  0.00  0.00
  WS02004138WS02004139    1.00   0.00  0.00  0.00  0.99  0.01  0.00  0.00  1.00  0.00
  WS02003067WS02003066    1.00   0.05  0.00  0.00  0.95  0.00  0.00  0.00  0.00  0.00
  WS02001213WS02003059    1.00   0.00  0.00  0.00  0.99  0.00  0.00  0.00  0.00  0.00
  WS02001212WS02001213    1.00   0.00  0.00  0.00  0.91  0.00  0.08  0.00  0.00  0.00
  WS02001211WS02001212    1.00   0.00  0.00  0.00  1.00  0.00  0.00  0.00  0.00  0.00
  WS02003072WS02003073    1.00   0.00  0.00  0.00  0.00  0.00  0.00  1.00  0.00  0.00
  WS02003069WS02003072    1.00   0.00  0.00  0.00  0.99  0.01  0.00  0.00  0.19  0.00
  WS02003060WS02003069    1.00   0.00  0.00  0.00  0.99  0.01  0.00  0.00  0.08  0.00
  WS02003059WS02003060    1.00   0.00  0.00  0.00  1.00  0.00  0.00  0.00  0.01  0.00
  HS02004901HS02004770    1.00   0.04  0.00  0.00  0.96  0.00  0.00  0.00  0.00  0.00
  HS02004876HS02004881    1.00   0.02  0.00  0.00  0.89  0.09  0.00  0.00  0.00  0.00
  HS02004870HS02004876    1.00   0.01  0.00  0.00  0.99  0.00  0.00  0.00  0.95  0.00
  HS02004842HS02004848    1.00   0.00  0.04  0.00  0.96  0.00  0.00  0.00  0.58  0.00
  HS02004837HS02004842    1.00   0.00  0.00  0.00  0.99  0.01  0.00  0.00  0.11  0.00
  HS02004830HS02004837    1.00   0.00  0.00  0.00  1.00  0.00  0.00  0.00  0.99  0.00
  HS02004824HS02004830    1.00   0.00  0.00  0.00  1.00  0.00  0.00  0.00  0.00  0.00
  HS02004817HS02004824    1.00   0.00  0.00  0.00  1.00  0.00  0.00  0.00  1.00  0.00
  HS02004770HS02004777    1.00   0.00  0.04  0.00  0.96  0.00  0.00  0.00  0.03  0.00
  HS02004799HS02004480    1.00   0.00  0.02  0.00  0.96  0.00  0.02  0.00  0.00  0.00
  HS02004792HS02004799    1.00   0.00  0.00  0.00  0.99  0.01  0.00  0.00  0.98  0.00
  HS02004788HS02004792    1.00   0.00  0.00  0.00  0.99  0.01  0.00  0.00  0.98  0.00
  HS02004785HS02004788    1.00   0.00  0.00  0.00  1.00  0.00  0.00  0.00  0.00  0.00
  HS02004777HS02004785    1.00   0.00  0.00  0.00  1.00  0.00  0.00  0.00  0.14  0.00
  HS02004480HS02004478    1.00   0.04  0.00  0.00  0.66  0.00  0.00  0.30  0.00  0.00
  HS02004479HS02004480    1.00   0.02  0.00  0.00  0.98  0.00  0.00  0.00  0.13  0.00
  HS02004862HS02004870    1.00   0.00  0.00  0.00  1.00  0.00  0.00  0.00  0.05  0.00
  HS02004848HS02004852    1.00   0.04  0.00  0.00  0.96  0.00  0.00  0.00  0.61  0.00
  HS02004856HS02004862    1.00   0.00  0.05  0.00  0.95  0.00  0.00  0.00  0.80  0.00
  HS02004852HS02004856    1.00   0.04  0.00  0.00  0.96  0.00  0.00  0.00  0.85  0.00
  HS02004802HS02004478    1.00   0.04  0.00  0.00  0.96  0.00  0.00  0.00  0.03  0.00
  HS02004478WS02006287    1.00   0.04  0.00  0.00  0.72  0.23  0.00  0.00  0.66  0.00
  HS02004817HS02004807    1.00   0.00  0.04  0.00  0.96  0.00  0.00  0.00  0.01  0.00
  HS02004807HS02004802    1.00   0.04  0.00  0.00  0.96  0.00  0.00  0.00  0.00  0.00
  YS02001759YS02001757    1.00   0.00  0.00  0.00  1.00  0.00  0.00  0.00  0.16  0.00
  YS02001762YS02001759    1.00   0.00  0.00  0.00  1.00  0.00  0.00  0.00  0.04  0.00
  YS02001765YS02001762    1.00   0.00  0.00  0.00  1.00  0.00  0.00  0.00  0.16  0.00
  YS02001770YS02001767    1.00   0.00  0.00  0.00  1.00  0.00  0.00  0.00  0.00  0.00
  YS02001774YS02001770    1.00   0.00  0.04  0.00  0.96  0.00  0.00  0.00  0.04  0.00
  YS02001779YS02001774    1.00   0.00  0.00  0.00  1.00  0.00  0.00  0.00  0.21  0.00
  YS02001649YS02001757    1.00   0.00  0.00  0.00  1.00  0.00  0.00  0.00  0.17  0.00
  YS02001767YS02001765    1.00   0.00  0.00  0.00  1.00  0.00  0.00  0.00  0.00  0.00
  YS02006561YS02001783    1.00   0.05  0.00  0.00  0.30  0.64  0.00  0.00  0.53  0.00
  YS02001783YS02001784    1.00   0.00  0.05  0.00  0.95  0.00  0.00  0.00  0.01  0.00
  YS02001784YS02001785    1.00   0.00  0.00  0.00  1.00  0.00  0.00  0.00  0.20  0.00
  YS02001788YS02001790    1.00   0.00  0.00  0.00  0.32  0.68  0.00  0.00  0.48  0.00
  YS02001790YS02001791    1.00   0.00  0.00  0.00  0.29  0.71  0.00  0.00  0.52  0.00
  YS02001791YS02001793    1.00   0.00  0.00  0.00  0.29  0.71  0.00  0.00  0.02  0.00
  YS02001910YS02001907    1.00   0.00  0.00  0.00  0.98  0.00  0.00  0.02  0.13  0.00
  YS02001786YS02001788    1.00   0.00  0.00  0.00  0.32  0.68  0.00  0.00  0.00  0.00
  YS02001915YS02001910    1.00   0.00  0.00  0.00  0.99  0.01  0.00  0.00  0.18  0.00
  YS02001918YS02001915    1.00   0.00  0.01  0.00  0.98  0.01  0.00  0.00  0.58  0.00
  YS02001923YS02001920    1.00   0.00  0.00  0.00  1.00  0.00  0.00  0.00  0.86  0.00
  YS02001926YS02001923    1.00   0.00  0.03  0.00  0.13  0.00  0.84  0.00  0.00  0.00
  YS02001929YS02001926    1.00   0.00  0.04  0.00  0.96  0.00  0.00  0.00  0.79  0.00
  YS02001920YS02001918    1.00   0.00  0.01  0.00  0.99  0.00  0.00  0.00  0.00  0.00
  YS02001629YS02163301    1.00   0.04  0.00  0.00  0.95  0.00  0.00  0.00  0.00  0.00
  YS02001619YS02001622    1.00   0.04  0.00  0.00  0.96  0.00  0.00  0.00  0.00  0.00
  YS02001622YS02001625    1.00   0.04  0.00  0.00  0.96  0.00  0.00  0.00  0.07  0.00
  YS02001625YS02001629    1.00   0.04  0.01  0.00  0.94  0.00  0.01  0.00  0.00  0.00
  YS02163301YS02001633    1.00   0.00  0.04  0.00  0.96  0.00  0.00  0.00  0.00  0.00
  YS02163601YS02164001    1.00   0.00  0.03  0.00  0.97  0.00  0.00  0.00  0.00  0.00
  YS02164001YS02001641    1.00   0.01  0.02  0.00  0.97  0.00  0.00  0.00  0.06  0.00
  YS02001641YS02001644    1.00   0.00  0.01  0.00  0.99  0.00  0.00  0.00  0.00  0.00
  YS02001647YS02001649    1.00   0.00  0.05  0.00  0.95  0.00  0.00  0.00  0.01  0.00
  YS02006553YS02006556    1.00   0.01  0.00  0.00  0.99  0.00  0.00  0.00  0.03  0.00
  YS02006556YS02006558    1.00   0.00  0.00  0.00  1.00  0.00  0.00  0.00  0.00  0.00
  YSB6556YSB1171          1.00   0.02  0.01  0.00  0.96  0.00  0.00  0.00  0.00  0.00
  YS02001907YS02006553    1.00   0.00  0.02  0.00  0.98  0.00  0.00  0.00  0.00  0.00
  YS02006558YS02006561    1.00   0.05  0.00  0.00  0.16  0.79  0.00  0.00  0.47  0.00
  YS02001633YS02163601    1.00   0.00  0.01  0.00  0.99  0.00  0.00  0.00  0.16  0.00
  YS02001644YS02001647    1.00   0.00  0.05  0.00  0.95  0.00  0.00  0.00  0.00  0.00
  YS02001745YS02001748    1.00   0.00  0.00  0.00  0.90  0.01  0.00  0.09  0.06  0.00
  YS02001748YS02001751    1.00   0.00  0.00  0.00  0.98  0.02  0.00  0.00  0.15  0.00
  YS02001751YS02001754    1.00   0.00  0.00  0.00  0.94  0.00  0.00  0.05  0.02  0.00
  YS02001754YS02001757    1.00   0.00  0.00  0.00  0.99  0.01  0.00  0.00  0.20  0.00
  YS02001882YS02001884    1.00   0.04  0.00  0.00  0.96  0.00  0.00  0.00  0.00  0.00
  YS02001884YS02001887    1.00   0.03  0.01  0.00  0.96  0.00  0.00  0.00  0.00  0.00
  YS02001890YS02001895    1.00   0.00  0.04  0.00  0.95  0.00  0.00  0.00  0.00  0.00
  YS02001895YS02001898    1.00   0.05  0.00  0.00  0.95  0.00  0.01  0.00  0.00  0.00
  YS02001898YS02001901    1.00   0.05  0.00  0.00  0.95  0.00  0.00  0.00  0.02  0.00
  YS02001901YS02001904    1.00   0.05  0.00  0.00  0.95  0.00  0.00  0.00  0.00  0.00
  YS02001904YS02001907    1.00   0.00  0.04  0.00  0.95  0.00  0.00  0.00  0.00  0.00
  YS02001887YS02001890    1.00   0.00  0.00  0.00  0.98  0.00  0.02  0.00  0.00  0.00
  YS02001652YS02001649    1.00   0.00  0.00  0.00  1.00  0.00  0.00  0.00  0.18  0.00
  YS02001655YS02001652    1.00   0.00  0.00  0.00  0.95  0.00  0.00  0.05  0.02  0.00
  YS02001658YS02001655    1.00   0.00  0.04  0.00  0.94  0.02  0.00  0.00  0.11  0.00
  YS02001661YS02001658    1.00   0.04  0.00  0.00  0.90  0.06  0.00  0.00  0.07  0.00
  YS02001664YS02001661    1.00   0.04  0.00  0.00  0.85  0.11  0.00  0.00  0.23  0.00
  YSB1154YSB6556          1.00   0.04  0.00  0.00  0.96  0.00  0.00  0.00  0.02  0.00
  YSB1174YSB1171          1.00   0.03  0.01  0.00  0.97  0.00  0.00  0.00  0.00  0.00
  YSB1171HS02004479       1.00   0.02  0.00  0.00  0.97  0.00  0.00  0.00  0.11  0.00
  HS02004881HS02006253    1.00   0.03  0.00  0.00  0.92  0.00  0.00  0.05  0.73  0.00
  YS02001793JiankangQianchi    1.00   0.00  0.00  0.00  0.67  0.33  0.00  0.00  0.32  0.00
  YS02001757CaochengTiaoxuchi    1.00   0.00  0.06  0.00  0.90  0.04  0.00  0.00  0.00  0.00
  WSF200WS02003060        1.00   0.00  0.04  0.00  0.65  0.31  0.00  0.00  0.20  0.00
  1                       1.00   0.00  0.00  0.00  0.00  1.00  0.00  0.00  0.32  0.00
  2                       1.00   0.43  0.00  0.00  0.00  0.57  0.00  0.00  0.13  0.00
  3                       1.00   0.12  0.00  0.00  0.00  0.88  0.00  0.00  0.27  0.00
  4                       1.00   1.00  0.00  0.00  0.00  0.00  0.00  0.00  0.00  0.00
  
  
  *************************
  Conduit Surcharge Summary
  *************************
  
  ----------------------------------------------------------------------------
                                                           Hours        Hours 
                         --------- Hours Full --------   Above Full   Capacity
  Conduit                Both Ends  Upstream  Dnstream   Normal Flow   Limited
  ----------------------------------------------------------------------------
  WS02006229WS02006228        3.13      3.53      3.13      5.44         3.12
  WS02006256WS02006235        6.09      6.09      7.48      2.35         0.01
  WS02006253WS02006251        0.01      0.01      0.27      0.01         0.01
  WS02006252WS02006251        1.87      1.87      3.41      3.01         0.01
  WS02006251WS02006249        0.01      0.03      0.01      2.10         0.01
  WS02006249WS02006248        0.01      0.01      0.01      5.65         0.01
  WS02006248WS02006247        0.01      0.01      0.12      0.01         0.01
  WS02006247WS02006245        0.09      0.20      0.09      5.73         0.09
  WS02006245WS02006243        0.18      0.18      0.77      0.05         0.01
  WS02006243WS02006242        0.90      0.90      2.39      0.01         0.01
  WS02006242WS02006240        1.16      1.16      2.96      2.87         0.01
  WS02006240WS02006239        1.37      1.37      1.44      0.01         0.01
  WS02006239WS02006238        2.78      2.78      2.96      0.02         0.04
  WS02006238WS02006235        2.75      2.75      3.41      0.01         0.01
  WS02006235WS02006234        1.22      1.22      2.47      6.11         0.01
  WS02006234WS02006232        1.48      1.48      3.59      0.01         0.01
  WS02006232WS02006231        1.12      1.12      3.59      0.01         0.01
  WS02006231WS02006230        0.81      0.81      1.14      6.12         0.01
  WS02006230WS02006229        4.58      5.26      4.58      6.22         4.58
  WS02006228WS02006109        3.31      4.12      3.31      5.87         3.31
  WS02006112WS02006115        0.01      0.01      1.29      0.01         0.01
  WS02006111WS02006112        0.01      0.01      5.51      0.01         0.01
  WS02006110WS02006113        0.01      0.01      3.85      0.01         0.01
  WS02006109WS02006110        1.21      1.21      4.12      1.21         0.01
  WS02004401WS02004402        0.01      0.01      0.01      0.01         0.01
  WS02004406WS02004407        0.01      0.01      0.52      0.01         0.01
  WS02004405WS02004406        0.52      0.67      0.52      1.24         0.52
  WS02004404WS02004405        0.67      0.85      0.67      6.00         0.67
  WS02004403WS02004404        0.03      0.03      0.85      0.01         0.01
  WS02004402WS02004403        0.01      0.01      0.03      0.01         0.01
  WS02003072WS02003073        0.01      0.01      0.01      5.73         0.01
  HS02004480HS02004478        0.01      0.01      0.01      0.25         0.01
  YS02001759YS02001757        5.66      5.66      5.74      0.01         0.01
  YS02001762YS02001759        5.63      5.63      5.66      0.01         0.01
  YS02001765YS02001762        5.60      5.60      5.63      0.01         0.01
  YS02001770YS02001767        5.45      5.46      5.48      0.39         0.90
  YS02001774YS02001770        5.40      5.40      5.63      0.01         0.01
  YS02001779YS02001774        5.29      5.29      5.63      0.01         0.01
  YS02001649YS02001757        5.64      5.64      5.74      0.01         0.01
  YS02001767YS02001765        5.48      5.48      5.60      0.01         0.01
  YS02006561YS02001783        0.61      0.61      1.13      0.01         0.01
  YS02001783YS02001784        1.10      1.13      1.15      1.16         0.90
  YS02001784YS02001785        1.10      1.15      1.10      2.10         1.10
  YS02001788YS02001790        1.08      1.08      1.54      0.01         0.01
  YS02001790YS02001791        1.54      1.54      1.57      0.45         0.45
  YS02001791YS02001793        1.57      1.57      1.68      0.01         0.01
  YS02001910YS02001907        0.96      0.96      1.48      0.01         0.01
  YS02001786YS02001788        1.08      1.10      1.08      1.67         1.08
  YS02001915YS02001910        0.72      0.72      0.96      0.01         0.01
  YS02001918YS02001915        0.49      0.49      0.72      0.01         0.01
  YS02001923YS02001920        0.25      0.25      0.52      0.01         0.01
  YS02001920YS02001918        0.49      0.49      0.52      0.01         0.01
  YS02001629YS02163301        5.41      5.41      5.49      0.01         0.01
  YS02001619YS02001622        5.16      5.16      5.19      0.01         0.01
  YS02001622YS02001625        5.19      5.19      5.36      0.01         0.01
  YS02001625YS02001629        5.17      5.17      5.36      0.01         0.01
  YS02163301YS02001633        5.49      5.49      5.61      0.01         0.01
  YS02163601YS02164001        5.61      5.61      5.64      0.01         0.01
  YS02164001YS02001641        5.61      5.61      5.61      0.01         0.02
  YS02001641YS02001644        5.61      5.61      5.62      1.20         1.47
  YS02001647YS02001649        5.35      5.35      5.64      0.01         0.01
  YS02006553YS02006556        1.20      1.20      1.55      0.01         0.01
  YS02006556YS02006558        1.36      1.36      1.62      0.01         0.01
  YS02001907YS02006553        2.09      2.09      2.30      0.01         0.01
  YS02006558YS02006561        0.81      1.16      0.81      1.94         0.81
  YS02001633YS02163601        5.60      5.60      5.64      0.01         0.01
  YS02001644YS02001647        5.35      5.35      5.62      0.01         0.01
  YS02001745YS02001748        0.01      0.01      4.81      0.01         0.01
  YS02001748YS02001751        5.05      5.05      5.14      0.01         0.01
  YS02001751YS02001754        5.14      5.14      5.33      0.01         0.01
  YS02001754YS02001757        5.35      5.35      5.74      0.01         0.01
  YS02001882YS02001884        0.74      0.74      0.76      0.01         0.01
  YS02001884YS02001887        0.83      0.83      0.87      0.01         0.01
  YS02001890YS02001895        0.71      0.71      0.98      0.01         0.01
  YS02001895YS02001898        0.69      0.69      0.71      0.01         0.01
  YS02001898YS02001901        0.72      0.72      0.82      0.01         0.01
  YS02001901YS02001904        0.79      0.79      0.82      0.01         0.01
  YS02001904YS02001907        0.79      0.79      1.56      0.01         0.01
  YS02001887YS02001890        0.91      0.91      0.94      0.01         0.01
  YS02001652YS02001649        5.36      5.36      5.64      0.01         0.01
  YS02001655YS02001652        5.16      5.16      5.35      0.01         0.01
  YS02001658YS02001655        4.90      4.90      5.16      0.01         0.01
  YS02001661YS02001658        0.20      0.20      4.90      0.01         0.01
  YS02001664YS02001661        0.01      0.01      1.07      0.01         0.01
  YS02001793JiankangQianchi        1.65      1.65      3.74      0.01         0.01
  YS02001757CaochengTiaoxuchi        4.82      4.82      5.74      0.01         0.01
  
  
  ***************
  Pumping Summary
  ***************
  
  ---------------------------------------------------------------------------------------------------------
                                                  Min       Avg       Max     Total     Power    % Time Off
                        Percent   Number of      Flow      Flow      Flow    Volume     Usage    Pump Curve
  Pump                 Utilized   Start-Ups       LPS       LPS       LPS  10^6 ltr     Kw-hr    Low   High
  ---------------------------------------------------------------------------------------------------------
  CC-Pump-1               63.05           5      0.00    153.33    200.00     2.741      4.85    0.0   13.9
  CC-Pump-2               71.56           4      0.00    162.93    200.00     3.280      5.89    0.0   12.2
  JK-Pump-1               78.72           5      0.00    190.50    300.00     3.338     40.25    0.0    0.0
  JK-Pump-2               87.22           7      0.00    185.80    300.00     3.677     41.20    0.0    0.0
  XR-Pump-1               85.09           7      0.00     72.14     95.00     1.739     13.88    0.0    0.0
  XR-Pump-2               80.83          10      0.00     57.55     95.00     1.396     11.52    0.0    0.0
  XR-Pump-3               82.96           8      0.00     73.07     95.00     1.710     13.48    0.0    0.0
  XR-Pump-4               91.48           4      0.00     81.60     95.00     2.080     16.85    0.0    0.0
  

  Analysis begun on:  Sat Dec 25 04:59:06 2021
  Analysis ended on:  Sat Dec 25 04:59:11 2021
  Total elapsed time: 00:00:05