
  EPA STORM WATER MANAGEMENT MODEL - VERSION 5.1 (Build 5.3.0.dev0)
  --------------------------------------------------------------

  WARNING 04: minimum elevation drop used for Conduit WS02004404WS02004405
  WARNING 03: negative offset ignored for Link YS02001904YS02001907
  
  *********************************************************
  NOTE: The summary statistics displayed in this report are
  based on results found at every computational time step,  
  not just on results from each reporting time step.
  *********************************************************
  
  ****************
  Analysis Options
  ****************
  Flow Units ............... LPS
  Process Models:
    Rainfall/Runoff ........ YES
    RDII ................... NO
    Snowmelt ............... NO
    Groundwater ............ NO
    Flow Routing ........... YES
    Ponding Allowed ........ NO
    Water Quality .......... NO
  Infiltration Method ...... HORTON
  Flow Routing Method ...... DYNWAVE
  Surcharge Method ......... EXTRAN
  Starting Date ............ 08/28/2015 08:00:00
  Ending Date .............. 08/28/2015 15:50:00
  Antecedent Dry Days ...... 8.0
  Report Time Step ......... 00:01:00
  Wet Time Step ............ 00:01:00
  Dry Time Step ............ 00:01:00
  Routing Time Step ........ 5.00 sec
  Variable Time Step ....... YES
  Maximum Trials ........... 8
  Number of Threads ........ 4
  Head Tolerance ........... 0.001500 m
  
  
  **************************        Volume         Depth
  Runoff Quantity Continuity     hectare-m            mm
  **************************     ---------       -------
  Total Precipitation ......         5.556        12.164
  Evaporation Loss .........         0.000         0.000
  Infiltration Loss ........         1.427         3.124
  Surface Runoff ...........         3.072         6.726
  Final Storage ............         1.058         2.316
  Continuity Error (%) .....        -0.016
  
  
  **************************        Volume        Volume
  Flow Routing Continuity        hectare-m      10^6 ltr
  **************************     ---------     ---------
  Dry Weather Inflow .......         0.616         6.165
  Wet Weather Inflow .......         3.071        30.708
  Groundwater Inflow .......         0.000         0.000
  RDII Inflow ..............         0.000         0.000
  External Inflow ..........         0.102         1.024
  External Outflow .........         2.114        21.140
  Flooding Loss ............         1.227        12.274
  Evaporation Loss .........         0.000         0.000
  Exfiltration Loss ........         0.000         0.000
  Initial Stored Volume ....         0.076         0.761
  Final Stored Volume ......         0.633         6.326
  Continuity Error (%) .....        -2.802
  
  
  *************************
  Highest Continuity Errors
  *************************
  Node HS02004842 (16.24%)
  Node YS02001884 (11.43%)
  Node JK-storage (-11.41%)
  Node YSB1171 (3.12%)
  Node YS02001774 (3.05%)
  
  
  ***************************
  Time-Step Critical Elements
  ***************************
  Link 3 (51.19%)
  Link WS02006252WS02006251 (39.77%)
  Link WS02006238WS02006235 (3.35%)
  Link WS02006280WS02006229 (1.52%)
  
  
  ********************************
  Highest Flow Instability Indexes
  ********************************
  Link YS02163601YS02164001 (36)
  Link YS02163301YS02001633 (36)
  Link YS02001629YS02163301 (36)
  Link YS02001619YS02001622 (36)
  Link WS02006113WS02006111 (33)
  
  
  *************************
  Routing Time Step Summary
  *************************
  Minimum Time Step           :     0.50 sec
  Average Time Step           :     0.75 sec
  Maximum Time Step           :     5.00 sec
  Percent in Steady State     :    -0.00
  Average Iterations per Step :     4.43
  Percent Not Converging      :    19.84
  
  
  ***************************
  Subcatchment Runoff Summary
  ***************************
  
  ------------------------------------------------------------------------------------------------------------------------------
                            Total      Total      Total      Total     Imperv       Perv      Total       Total     Peak  Runoff
                           Precip      Runon       Evap      Infil     Runoff     Runoff     Runoff      Runoff   Runoff   Coeff
  Subcatchment                 mm         mm         mm         mm         mm         mm         mm    10^6 ltr      LPS
  ------------------------------------------------------------------------------------------------------------------------------
  sub0                      12.16       0.00       0.00       0.85      10.05       0.00      10.05        0.01     1.91   0.826
  sub1                      12.16       0.00       0.00       1.34       9.56       0.00       9.56        0.06    14.15   0.786
  sub2                      12.16       0.00       0.00       4.50       6.75       0.00       6.75        0.06    13.75   0.555
  sub3                      12.16       0.00       0.00       4.50       6.71       0.00       6.71        0.15    32.07   0.552
  sub4                      12.16       0.00       0.00       1.34       9.40       0.00       9.40        0.20    40.20   0.773
  sub5                      12.16       0.00       0.00       0.85       9.99       0.00       9.99        0.11    25.19   0.822
  sub7                      12.16       0.00       0.00       1.09       9.81       0.00       9.81        0.03     7.55   0.807
  sub8                      12.16       0.00       0.00       1.09       9.80       0.00       9.80        0.06    14.17   0.806
  sub9                      12.16       0.00       0.00       1.09       9.80       0.00       9.80        0.05    10.64   0.806
  sub10                     12.16       0.00       0.00       0.97       9.89       0.00       9.89        0.11    24.40   0.813
  sub11                     12.16       0.00       0.00       0.97       9.91       0.00       9.91        0.12    26.15   0.815
  sub12                     12.16       0.00       0.00       1.58       9.39       0.00       9.39        0.08    19.06   0.772
  sub14                     12.16       0.00       0.00       1.09       9.80       0.00       9.80        0.09    21.02   0.805
  sub15                     12.16       0.00       0.00       3.65       7.53       0.00       7.53        0.13    29.11   0.619
  sub16                     12.16       0.00       0.00       4.01       7.23       0.00       7.23        0.08    17.47   0.594
  sub17                     12.16       0.00       0.00       3.89       7.34       0.00       7.34        0.06    14.47   0.603
  sub22                     12.16       0.00       0.00       5.23       6.14       0.00       6.14        0.39    88.27   0.505
  sub23                     12.16       0.00       0.00       4.50       6.79       0.00       6.79        0.32    73.89   0.558
  sub60                     12.16       0.00       0.00       1.46       7.71       0.00       7.71        2.34   297.17   0.634
  sub61                     12.16       0.00       0.00       2.07       7.87       0.00       7.87        2.43   359.80   0.647
  sub62                     12.16       0.00       0.00       0.97       8.55       0.00       8.55        2.63   372.87   0.703
  sub63                     12.16       0.00       0.00       3.53       6.89       0.00       6.89        2.09   327.80   0.567
  sub64                     12.16       0.00       0.00       1.82       7.40       0.00       7.40        2.25   282.66   0.608
  sub65                     12.16       0.00       0.00       1.58       7.52       0.00       7.52        2.31   287.20   0.618
  sub66                     12.16       0.00       0.00       3.53       6.36       0.00       6.36        1.95   257.27   0.523
  sub67                     12.16       0.00       0.00       0.97       9.05       0.00       9.05        2.79   452.90   0.744
  sub68                     12.16       0.00       0.00       1.70       8.28       0.00       8.28        2.55   391.99   0.681
  sub69                     12.16       0.00       0.00       1.82       8.61       0.00       8.61        2.01   355.79   0.708
  sub70                     12.16       8.79       0.00       7.03      11.43       0.10      11.53        2.64   335.00   0.550
  sub71                     12.16       0.00       0.00       0.97       8.31       0.00       8.31        1.96   263.63   0.683
  sub72                     12.16       0.00       0.00       0.85       6.56       0.00       6.56        1.34   129.40   0.540
  sub73                     12.16      11.23       0.00       7.88      12.47       0.08      12.54        2.95   300.52   0.536
  sub74                     12.16       0.00       0.00       9.12       2.57       0.00       2.57        1.03   189.59   0.211
  
  
  ******************
  Node Depth Summary
  ******************
  
  ---------------------------------------------------------------------------------
                                 Average  Maximum  Maximum  Time of Max    Reported
                                   Depth    Depth      HGL   Occurrence   Max Depth
  Node                 Type       Meters   Meters   Meters  days hr:min      Meters
  ---------------------------------------------------------------------------------
  WS02001211           JUNCTION     0.66     0.79     5.63     0  02:20        0.79
  WS02001212           JUNCTION     0.39     0.50     5.57     0  02:21        0.50
  WS02001213           JUNCTION     0.63     0.76     5.52     0  02:21        0.76
  WS02003069           JUNCTION     0.46     0.60     5.18     0  02:23        0.60
  WS02003072           JUNCTION     0.53     0.65     5.03     0  02:23        0.65
  WS02003073           JUNCTION     0.32     0.40     4.47     0  02:24        0.40
  WS02003060           JUNCTION     0.41     0.53     5.46     0  02:22        0.53
  WS02003066           JUNCTION     0.25     0.33     5.88     0  03:06        0.33
  WS02003059           JUNCTION     0.69     0.82     5.50     0  02:22        0.82
  WS02003067           JUNCTION     0.60     0.74     6.06     0  03:06        0.74
  WS02004401           JUNCTION     0.72     0.97     6.97     0  03:03        0.97
  WS02004402           JUNCTION     0.75     0.99     6.95     0  03:03        0.99
  WS02004403           JUNCTION     0.77     0.99     6.92     0  03:03        0.99
  WS02004404           JUNCTION     0.84     1.06     6.91     0  03:03        1.05
  WS02004406           JUNCTION     0.84     1.03     6.86     0  03:03        1.03
  WS02004409           JUNCTION     0.53     0.75     6.52     0  03:05        0.75
  WS02004410           JUNCTION     0.55     0.76     6.48     0  03:05        0.76
  WS02004411           JUNCTION     0.57     0.76     6.44     0  03:05        0.76
  WS02004412           JUNCTION     0.58     0.76     6.40     0  03:05        0.76
  WS02004413           JUNCTION     0.73     0.91     6.38     0  03:05        0.91
  WS02004405           JUNCTION     0.83     1.04     6.89     0  03:03        1.04
  WS02006109           JUNCTION     0.81     1.11     7.73     0  03:02        1.08
  WS02006110           JUNCTION     0.79     1.02     7.61     0  03:02        1.00
  WS02006111           JUNCTION     0.24     0.35     7.06     0  03:02        0.35
  WS02006112           JUNCTION     0.89     1.19     7.08     0  02:45        1.18
  WS02006113           JUNCTION     0.37     0.51     7.40     0  03:02        0.51
  WS02006115           JUNCTION     0.61     0.88     7.02     0  03:03        0.88
  WS02006116           JUNCTION     0.69     0.96     7.00     0  03:03        0.96
  WS02006230           JUNCTION     0.80     1.16     7.91     0  03:02        1.16
  WS02006231           JUNCTION     0.54     0.82     7.94     0  03:02        0.82
  WS02006232           JUNCTION     0.68     0.94     7.98     0  03:02        0.93
  WS02006234           JUNCTION     0.60     0.85     8.00     0  03:02        0.84
  WS02006235           JUNCTION     0.63     0.87     8.03     0  03:02        0.86
  WS02006238           JUNCTION     0.66     0.89     8.04     0  03:02        0.89
  WS02006240           JUNCTION     0.56     0.79     8.08     0  02:20        0.79
  WS02006242           JUNCTION     0.62     0.85     8.12     0  02:20        0.85
  WS02006243           JUNCTION     0.50     0.74     8.16     0  02:20        0.74
  WS02006245           JUNCTION     0.48     0.70     8.19     0  02:20        0.70
  WS02006247           JUNCTION     0.49     0.71     8.21     0  02:20        0.71
  WS02006248           JUNCTION     0.43     0.64     8.23     0  02:20        0.64
  WS02006249           JUNCTION     0.46     0.64     8.24     0  02:20        0.64
  WS02006239           JUNCTION     0.62     0.85     8.06     0  02:20        0.85
  WS02006251           JUNCTION     0.45     0.68     8.35     0  02:20        0.68
  WS02006252           JUNCTION     0.39     0.59     8.83     0  05:08        0.59
  WS02006253           JUNCTION     0.48     0.71     8.35     0  02:20        0.71
  WS02006256           JUNCTION     1.07     1.21     8.15     0  02:20        1.21
  WS02004138           JUNCTION     0.15     0.19     7.44     0  01:10        0.19
  WS02004407           JUNCTION     0.24     0.33     6.64     0  03:04        0.33
  WS02006228           JUNCTION     0.82     1.17     7.82     0  03:02        1.16
  WS02006229           JUNCTION     0.80     1.18     7.87     0  03:02        1.18
  WS02006280           JUNCTION     0.07     0.19     8.46     0  03:02        0.19
  WS02006284           JUNCTION     0.38     0.55     8.95     0  03:02        0.55
  WS02006287           JUNCTION     0.11     0.28     9.24     0  03:01        0.28
  WSF200               JUNCTION     0.24     0.35     5.58     0  03:06        0.35
  HS02004901           JUNCTION     0.13     0.28    10.10     0  03:01        0.28
  HS02004881           JUNCTION     0.01     0.04     9.07     0  03:01        0.04
  HS02004876           JUNCTION     0.05     0.12     9.15     0  03:01        0.12
  HS02004870           JUNCTION     0.02     0.06     9.35     0  03:01        0.06
  HS02004862           JUNCTION     0.02     0.07     9.46     0  03:01        0.07
  HS02004856           JUNCTION     0.08     0.13     9.55     0  03:01        0.13
  HS02004852           JUNCTION     0.01     0.05     9.56     0  03:01        0.05
  HS02004848           JUNCTION     0.01     0.05     9.65     0  03:01        0.05
  HS02004842           JUNCTION     0.34     0.38     9.65     0  03:01        0.38
  HS02004837           JUNCTION     0.03     0.07     9.65     0  03:01        0.07
  HS02004830           JUNCTION     0.04     0.08     9.55     0  03:01        0.08
  HS02004824           JUNCTION     0.03     0.06     9.46     0  03:01        0.06
  HS02004817           JUNCTION     0.45     0.60     9.44     0  03:01        0.60
  HS02004807           JUNCTION     0.13     0.27     9.44     0  03:01        0.27
  HS02004802           JUNCTION     0.17     0.30     9.43     0  03:01        0.30
  HS02004799           JUNCTION     0.13     0.33     9.54     0  03:01        0.33
  HS02004792           JUNCTION     0.04     0.14     9.66     0  03:01        0.14
  HS02004788           JUNCTION     0.03     0.10    10.00     0  03:01        0.10
  HS02004785           JUNCTION     0.05     0.17    10.07     0  03:01        0.17
  HS02004777           JUNCTION     0.15     0.30    10.10     0  03:01        0.30
  HS02004770           JUNCTION     0.12     0.27    10.10     0  03:01        0.27
  HS02004480           JUNCTION     0.09     0.26     9.50     0  03:01        0.26
  HS02004479           JUNCTION     0.13     0.30     9.50     0  03:01        0.30
  HS02004478           JUNCTION     0.07     0.18     9.41     0  03:01        0.18
  YS02001745           JUNCTION     0.69     0.87     8.39     0  03:22        0.87
  YS02001748           JUNCTION     1.08     2.27     9.35     0  02:43        1.32
  YS02001751           JUNCTION     1.26     2.17     9.05     0  02:44        1.53
  YS02001754           JUNCTION     1.52     2.12     8.72     0  02:44        1.81
  YS02001762           JUNCTION     1.72     2.04     8.44     0  02:45        2.02
  YS02001765           JUNCTION     1.67     1.98     8.43     0  02:45        1.97
  YS02001767           JUNCTION     1.64     1.93     8.42     0  03:23        1.92
  YS02001770           JUNCTION     1.63     1.93     8.43     0  02:45        1.90
  YS02001774           JUNCTION     1.70     2.00     8.42     0  02:45        1.96
  YS02001779           JUNCTION     1.45     1.68     8.37     0  02:42        1.68
  YS02001882           JUNCTION     0.54     1.61     8.33     0  02:53        1.60
  YS02001884           JUNCTION     0.63     1.71     8.33     0  02:53        1.70
  YS02001759           JUNCTION     1.75     2.07     8.44     0  02:44        2.07
  YS02001887           JUNCTION     0.71     1.79     8.32     0  02:53        1.78
  YS02001890           JUNCTION     0.74     1.81     8.32     0  03:00        1.80
  YS02001898           JUNCTION     0.51     1.55     8.29     0  02:55        1.55
  YS02001901           JUNCTION     0.63     1.67     8.28     0  03:00        1.66
  YS02001904           JUNCTION     0.61     1.63     8.26     0  03:00        1.63
  YS02001907           JUNCTION     0.94     1.96     8.25     0  02:53        1.96
  YS02001910           JUNCTION     0.73     1.78     8.29     0  02:54        1.77
  YS02001915           JUNCTION     0.52     1.59     8.31     0  02:54        1.58
  YS02001918           JUNCTION     0.27     1.27     8.34     0  02:54        1.27
  YS02001619           JUNCTION     1.23     1.61     8.54     0  02:39        1.47
  YS02001629           JUNCTION     1.59     1.85     8.40     0  02:41        1.84
  YS02001641           JUNCTION     1.69     2.00     8.43     0  02:43        1.93
  YS02001644           JUNCTION     1.69     1.92     8.35     0  02:43        1.92
  YS02001652           JUNCTION     1.53     2.16     8.76     0  02:35        1.98
  YS02001655           JUNCTION     1.29     2.20     9.05     0  02:35        1.85
  YS02001920           JUNCTION     0.37     1.35     8.36     0  02:54        1.34
  YS02001923           JUNCTION     0.21     1.11     8.37     0  02:54        1.11
  YS02001926           JUNCTION     0.26     0.92     8.37     0  02:54        0.89
  YS02001929           JUNCTION     0.15     0.70     8.39     0  02:54        0.63
  YS02001658           JUNCTION     1.02     2.30     9.44     0  02:41        1.71
  YS02001661           JUNCTION     0.80     2.46     9.86     0  02:57        1.65
  YS02001664           JUNCTION     0.35     0.57     8.49     0  03:47        0.56
  YS02001622           JUNCTION     1.25     1.62     8.52     0  02:40        1.49
  YS02001633           JUNCTION     1.68     2.03     8.49     0  02:43        1.94
  YS02001649           JUNCTION     1.73     2.05     8.44     0  02:55        2.05
  YS02001757           JUNCTION     1.85     2.21     8.47     0  02:45        2.16
  YS02001895           JUNCTION     0.50     1.56     8.30     0  03:00        1.55
  YS02001625           JUNCTION     1.54     1.78     8.38     0  02:39        1.78
  YS02163301           JUNCTION     1.62     1.94     8.46     0  02:43        1.87
  YS02163601           JUNCTION     1.73     2.08     8.48     0  02:43        1.99
  YS02164001           JUNCTION     1.67     2.02     8.48     0  02:43        1.91
  YS02001647           JUNCTION     1.52     1.81     8.42     0  02:41        1.79
  YSB1154              JUNCTION     0.27     0.45     9.51     0  03:01        0.45
  YSB6556              JUNCTION     0.16     0.34     9.51     0  03:01        0.34
  YSB1174              JUNCTION     0.22     0.40     9.51     0  03:01        0.40
  YSB1171              JUNCTION     0.42     0.60     9.51     0  03:01        0.60
  YS02006553           JUNCTION     0.94     1.96     8.25     0  03:00        1.96
  YS02006561           JUNCTION     0.31     1.08     7.74     0  02:59        1.07
  YS02006556           JUNCTION     0.91     1.92     8.23     0  02:58        1.91
  YS02006558           JUNCTION     0.95     1.96     8.23     0  02:59        1.95
  YS02001783           JUNCTION     0.54     2.40     8.54     0  02:42        1.46
  YS02001784           JUNCTION     0.57     2.29     8.36     0  02:42        1.40
  YS02001786           JUNCTION     0.51     2.05     8.08     0  02:42        1.25
  YS02001788           JUNCTION     0.45     1.73     7.70     0  02:42        1.13
  YS02001790           JUNCTION     0.58     1.96     7.60     0  02:41        1.29
  YS02001791           JUNCTION     0.56     1.62     7.09     0  02:42        1.27
  YS02001793           JUNCTION     0.77     1.96     6.79     0  02:42        1.80
  WS02004139           JUNCTION     0.60     0.73     5.64     0  02:20        0.73
  WSC                  OUTFALL      0.32     0.40     1.07     0  02:24        0.40
  3                    OUTFALL      0.11     0.21     6.21     0  02:20        0.21
  4                    OUTFALL      0.03     0.14     7.14     0  02:20        0.14
  5                    OUTFALL      0.00     0.00     5.00     0  00:00        0.00
  JK-storage           STORAGE      2.59     5.80     6.60     0  02:42        5.80
  CC-storage           STORAGE      1.07     1.38     8.38     0  04:32        1.38
  XR-storage           STORAGE      6.91     7.72     5.72     0  02:51        7.72
  
  
  *******************
  Node Inflow Summary
  *******************
  
  -------------------------------------------------------------------------------------------------
                                  Maximum  Maximum                  Lateral       Total        Flow
                                  Lateral    Total  Time of Max      Inflow      Inflow     Balance
                                   Inflow   Inflow   Occurrence      Volume      Volume       Error
  Node                 Type           LPS      LPS  days hr:min    10^6 ltr    10^6 ltr     Percent
  -------------------------------------------------------------------------------------------------
  WS02001211           JUNCTION      7.35   382.34     0  01:10       0.207        6.91       0.452
  WS02001212           JUNCTION      0.00   378.95     0  01:11           0        6.87       0.261
  WS02001213           JUNCTION      0.00   378.38     0  01:11           0        6.86       0.303
  WS02003069           JUNCTION      0.32   981.48     0  02:23     0.00902        15.8       0.193
  WS02003072           JUNCTION      0.00   981.15     0  02:23           0        15.8       0.234
  WS02003073           JUNCTION      1.82   982.97     0  02:24      0.0514        15.8       0.264
  WS02003060           JUNCTION     16.53   981.05     0  02:22       0.466        15.8       0.183
  WS02003066           JUNCTION      0.00   659.79     0  03:06           0        8.55       0.060
  WS02003059           JUNCTION      0.00   377.00     0  01:12           0        6.84       0.543
  WS02003067           JUNCTION      0.00   659.77     0  03:06           0        8.56       0.121
  WS02004401           JUNCTION      0.00   663.26     0  03:02           0        8.83       0.275
  WS02004402           JUNCTION      0.00   661.66     0  03:02           0         8.8       0.256
  WS02004403           JUNCTION      0.00   661.07     0  03:03           0        8.78       0.230
  WS02004404           JUNCTION      0.16   660.59     0  03:04     0.00457        8.76       0.170
  WS02004406           JUNCTION      0.00   660.66     0  03:04           0        8.73       0.414
  WS02004409           JUNCTION      0.00   660.59     0  03:04           0        8.68       0.227
  WS02004410           JUNCTION      0.00   660.27     0  03:04           0        8.66       0.251
  WS02004411           JUNCTION      0.00   660.17     0  03:05           0        8.64       0.254
  WS02004412           JUNCTION      0.00   659.85     0  03:05           0        8.62       0.269
  WS02004413           JUNCTION      0.00   659.87     0  03:05           0         8.6       0.389
  WS02004405           JUNCTION      0.04   660.64     0  03:04     0.00107        8.75       0.254
  WS02006109           JUNCTION      1.23   653.92     0  03:02      0.0347         8.9       0.249
  WS02006110           JUNCTION      0.00   653.87     0  03:02           0        8.88       0.258
  WS02006111           JUNCTION      0.00   685.58     0  03:02           0        8.85       0.061
  WS02006112           JUNCTION     14.47   665.16     0  03:02      0.0629         8.9       0.365
  WS02006113           JUNCTION      0.00   654.28     0  03:02           0        8.86       0.132
  WS02006115           JUNCTION      0.00   665.57     0  03:02           0        8.87       0.271
  WS02006116           JUNCTION      0.00   664.55     0  03:02           0        8.85       0.248
  WS02006230           JUNCTION     10.28   402.76     0  05:11        0.29        7.02       0.193
  WS02006231           JUNCTION      0.00   392.59     0  05:10           0        6.75       0.211
  WS02006232           JUNCTION      0.00   392.60     0  05:10           0        6.77       0.261
  WS02006234           JUNCTION      0.00   392.66     0  05:10           0        6.78       0.163
  WS02006235           JUNCTION      0.00   392.63     0  05:10           0        6.82       0.173
  WS02006238           JUNCTION      0.00   310.37     0  07:50           0        4.91       0.188
  WS02006240           JUNCTION      0.00   324.81     0  02:01           0        4.92       0.328
  WS02006242           JUNCTION      0.00   340.70     0  02:01           0        4.92       0.381
  WS02006243           JUNCTION      0.00   354.37     0  02:01           0        4.93       0.149
  WS02006245           JUNCTION      0.00   363.53     0  02:01           0        4.94       0.289
  WS02006247           JUNCTION      0.00   370.10     0  02:01           0        4.95       0.212
  WS02006248           JUNCTION      0.00   376.24     0  02:00           0        4.95       0.139
  WS02006249           JUNCTION      0.00   452.91     0  02:20           0        5.58       0.287
  WS02006239           JUNCTION      0.00   310.94     0  07:42           0        4.91       0.296
  WS02006251           JUNCTION      0.08   453.14     0  02:20     0.00217        5.62       0.254
  WS02006252           JUNCTION      0.00   400.00     0  02:00           0        5.24       0.010
  WS02006253           JUNCTION      1.91    81.00     0  03:01     0.00814       0.391       2.155
  WS02006256           JUNCTION      0.00   600.00     0  00:30           0        6.73       0.042
  WS02004138           JUNCTION      0.00   379.96     0  06:30           0        6.73       0.056
  WS02004407           JUNCTION      0.00   660.67     0  03:04           0        8.69       0.102
  WS02006228           JUNCTION      0.00   652.72     0  03:02           0        8.88       0.181
  WS02006229           JUNCTION      0.00   650.31     0  03:02           0         8.9       0.149
  WS02006280           JUNCTION      0.00   375.54     0  03:02           0        1.89       0.004
  WS02006284           JUNCTION      0.10   375.54     0  03:02      0.0027        1.89       0.064
  WS02006287           JUNCTION      0.00   375.27     0  03:01           0        1.89       0.038
  WSF200               JUNCTION      0.00   659.76     0  03:06           0        8.55       0.063
  HS02004901           JUNCTION     17.47    17.47     0  03:01      0.0757      0.0759       2.380
  HS02004881           JUNCTION      7.55    79.19     0  03:01      0.0331       0.357       0.087
  HS02004876           JUNCTION     14.15    72.10     0  03:01      0.0636       0.324       0.171
  HS02004870           JUNCTION     14.17    58.27     0  03:01      0.0626       0.261       0.043
  HS02004862           JUNCTION     13.95    44.46     0  03:01      0.0685       0.198       0.089
  HS02004856           JUNCTION     10.64    30.79     0  03:01      0.0471       0.131       1.118
  HS02004852           JUNCTION      0.00    20.44     0  03:01           0       0.084       0.069
  HS02004848           JUNCTION     32.07    32.07     0  03:01       0.151       0.151       0.033
  HS02004842           JUNCTION      0.00    11.42     0  03:01           0      0.0801      19.392
  HS02004837           JUNCTION     30.75    41.91     0  03:01       0.288       0.355       0.229
  HS02004830           JUNCTION      0.15    41.84     0  03:01     0.00423       0.346       0.358
  HS02004824           JUNCTION     40.25    81.79     0  03:01       0.197       0.542       0.100
  HS02004817           JUNCTION      0.60    82.18     0  03:01      0.0169       0.558       3.079
  HS02004807           JUNCTION     26.15   107.24     0  03:01       0.115       0.657       0.656
  HS02004802           JUNCTION      0.00   106.49     0  03:01           0       0.653       0.617
  HS02004799           JUNCTION     21.02   227.51     0  03:01      0.0932        1.06       0.236
  HS02004792           JUNCTION     88.55   207.33     0  03:01       0.396       0.966       0.043
  HS02004788           JUNCTION     30.78   119.37     0  03:01       0.177       0.571       0.069
  HS02004785           JUNCTION      0.15    89.79     0  03:01     0.00423       0.396       0.125
  HS02004777           JUNCTION      0.03    90.24     0  03:01    0.000846       0.397       1.326
  HS02004770           JUNCTION     73.89    90.93     0  03:01       0.324       0.398       0.787
  HS02004480           JUNCTION      0.00   269.27     0  03:01           0        1.25       0.098
  HS02004479           JUNCTION      0.00    42.82     0  03:02           0       0.204       0.361
  HS02004478           JUNCTION      0.00   375.17     0  03:01           0        1.89       0.018
  YS02001745           JUNCTION    297.18   411.62     0  02:42        2.34        2.35       0.417
  YS02001748           JUNCTION      0.04   606.24     0  02:43     0.00127        2.34       0.976
  YS02001751           JUNCTION      0.01   323.79     0  02:39     0.00031        2.31       1.025
  YS02001754           JUNCTION      0.26   310.82     0  03:01     0.00733        2.29       1.092
  YS02001762           JUNCTION      0.00   343.02     0  02:56           0        1.83       1.159
  YS02001765           JUNCTION      0.00   342.92     0  02:56           0        1.83       1.347
  YS02001767           JUNCTION      0.54   343.04     0  02:56      0.0151        1.86       1.967
  YS02001770           JUNCTION    373.02   373.02     0  03:01        2.63        2.66       1.197
  YS02001774           JUNCTION      0.00   280.45     0  03:30           0       0.822       3.150
  YS02001779           JUNCTION      0.01   280.54     0  03:30    0.000141       0.791       1.965
  YS02001882           JUNCTION      0.00    25.79     0  02:45           0       0.018      13.865
  YS02001884           JUNCTION      0.00    54.33     0  02:44           0      0.0534      12.908
  YS02001759           JUNCTION    359.84   674.85     0  02:56        2.43         4.2       0.547
  YS02001887           JUNCTION    453.35   453.41     0  03:01         2.8        2.83       0.300
  YS02001890           JUNCTION      0.00   453.70     0  03:01           0        2.79       0.329
  YS02001898           JUNCTION      0.00   453.73     0  03:01           0        2.77       0.120
  YS02001901           JUNCTION      0.00   453.71     0  03:01           0        2.77       0.243
  YS02001904           JUNCTION      0.00   453.57     0  03:01           0        2.77       0.225
  YS02001907           JUNCTION      0.00   879.55     0  02:59           0        6.12       0.400
  YS02001910           JUNCTION      0.00   460.42     0  02:55           0        3.37       0.350
  YS02001915           JUNCTION    263.65   460.32     0  02:55        1.96        3.39       0.176
  YS02001918           JUNCTION      0.00   222.95     0  02:55           0        1.44       0.129
  YS02001619           JUNCTION    257.27   257.27     0  03:01        1.95        1.95       0.626
  YS02001629           JUNCTION      0.00   209.24     0  02:50           0        1.64       1.773
  YS02001641           JUNCTION      0.00   441.15     0  02:50           0        3.85       0.550
  YS02001644           JUNCTION    282.70   990.19     0  03:26        2.25        7.92       0.331
  YS02001652           JUNCTION      0.00   374.69     0  03:01           0        2.04       1.144
  YS02001655           JUNCTION      0.15   444.32     0  02:35     0.00434        2.06       1.221
  YS02001920           JUNCTION      2.87   222.95     0  02:55      0.0809        1.43       0.201
  YS02001923           JUNCTION      0.04   233.64     0  02:55     0.00106        1.34       0.047
  YS02001926           JUNCTION      0.05   198.37     0  02:54     0.00147        1.34       0.250
  YS02001929           JUNCTION    129.40   129.40     0  03:01        1.34        1.34       0.040
  YS02001658           JUNCTION      0.00   645.19     0  02:40           0        2.09       1.060
  YS02001661           JUNCTION      0.00   692.88     0  02:55           0         2.8       0.002
  YS02001664           JUNCTION    327.80   356.53     0  02:54        2.09        2.79       0.176
  YS02001622           JUNCTION      0.00   257.47     0  03:01           0        1.94       1.661
  YS02001633           JUNCTION    287.40   441.52     0  02:50        2.32        3.91       0.828
  YS02001649           JUNCTION      0.00   946.50     0  02:50           0        5.17       0.725
  YS02001757           JUNCTION      0.00  1797.98     0  02:51           0         9.7       0.961
  YS02001895           JUNCTION      0.00   453.63     0  03:01           0        2.78       0.175
  YS02001625           JUNCTION      0.00   257.37     0  03:01           0         1.9       2.060
  YS02163301           JUNCTION      0.00   215.95     0  02:39           0        1.61       1.508
  YS02163601           JUNCTION      0.11   441.59     0  02:50      0.0031        3.87       0.783
  YS02164001           JUNCTION      0.00   441.63     0  02:50           0        3.85       0.521
  YS02001647           JUNCTION      0.00   673.16     0  02:50           0        4.07       0.697
  YSB1154              JUNCTION     25.19    25.19     0  03:01       0.113       0.114       1.285
  YSB6556              JUNCTION      0.00    24.91     0  03:01           0       0.115       1.100
  YSB1174              JUNCTION     19.06    19.06     0  03:01      0.0821      0.0827       1.581
  YSB1171              JUNCTION      0.00    43.19     0  03:01           0       0.203       3.220
  YS02006553           JUNCTION      0.00   667.28     0  03:17           0         5.9       0.264
  YS02006561           JUNCTION      0.00   964.25     0  03:00           0        8.42       0.006
  YS02006556           JUNCTION      0.00   667.20     0  03:17           0         5.9       0.190
  YS02006558           JUNCTION    392.87   964.59     0  03:00        2.57        8.45       0.065
  YS02001783           JUNCTION      0.00   964.30     0  03:00           0        8.42       0.027
  YS02001784           JUNCTION      1.06   965.32     0  03:00      0.0299        8.45       0.044
  YS02001786           JUNCTION      0.06   965.31     0  03:00     0.00159        8.44       0.041
  YS02001788           JUNCTION      0.07   965.36     0  03:00       0.002        8.44       0.024
  YS02001790           JUNCTION      0.15   965.59     0  03:00     0.00437        8.45       0.028
  YS02001791           JUNCTION      0.00   965.60     0  03:00           0        8.44       0.014
  YS02001793           JUNCTION      0.00   965.67     0  03:00           0        8.44       0.004
  WS02004139           JUNCTION      0.32   379.88     0  01:10     0.00905        6.73       0.485
  WSC                  OUTFALL       0.00   982.79     0  02:24           0        15.7       0.000
  3                    OUTFALL       0.00   528.97     0  02:20           0         4.8       0.000
  4                    OUTFALL       0.00   195.30     0  02:20           0       0.613       0.000
  5                    OUTFALL       0.00     0.00     0  00:00           0           0       0.000 ltr
  JK-storage           STORAGE       0.00   965.58     0  03:00           0        8.59     -10.238
  CC-storage           STORAGE       0.00  1797.98     0  02:51           0        8.65      -0.212
  XR-storage           STORAGE     690.11   690.11     0  03:01        9.61        10.2      -0.001
  
  
  **********************
  Node Surcharge Summary
  **********************
  
  Surcharging occurs when water rises above the top of the highest conduit.
  ---------------------------------------------------------------------
                                               Max. Height   Min. Depth
                                   Hours       Above Crown    Below Rim
  Node                 Type      Surcharged         Meters       Meters
  ---------------------------------------------------------------------
  WS02004404           JUNCTION        0.66          0.055        2.725
  WS02004406           JUNCTION        0.36          0.028        2.422
  WS02004405           JUNCTION        0.41          0.042        2.758
  WS02006109           JUNCTION        2.82          0.289        1.531
  WS02006110           JUNCTION        1.22          0.111        1.739
  WS02006112           JUNCTION        1.30          0.193        1.487
  WS02006230           JUNCTION        0.58          0.084        1.486
  WS02006231           JUNCTION        0.91          0.108        1.422
  WS02006232           JUNCTION        3.17          0.239        1.241
  WS02006234           JUNCTION        1.07          0.126        1.114
  WS02006235           JUNCTION        2.00          0.160        1.130
  WS02006238           JUNCTION        2.51          0.174        1.256
  WS02006240           JUNCTION        0.92          0.081        1.309
  WS02006242           JUNCTION        1.87          0.121        0.699
  WS02006243           JUNCTION        0.32          0.026        0.744
  WS02006239           JUNCTION        1.27          0.107        1.183
  WS02006252           JUNCTION        2.63          0.193        0.907
  WS02006228           JUNCTION        2.67          0.339        1.861
  YS02001748           JUNCTION        5.04          1.190        0.000
  YS02001751           JUNCTION        5.18          1.171        0.029
  YS02001754           JUNCTION        5.35          1.067        0.083
  YS02001762           JUNCTION        5.63          1.038        0.112
  YS02001765           JUNCTION        5.61          0.982        0.118
  YS02001767           JUNCTION        5.48          0.934        0.096
  YS02001770           JUNCTION        5.41          0.904        0.016
  YS02001774           JUNCTION        5.63          0.995        0.055
  YS02001779           JUNCTION        5.34          0.680        0.000
  YS02001882           JUNCTION        0.78          0.609        0.221
  YS02001884           JUNCTION        0.82          0.650        0.220
  YS02001759           JUNCTION        5.66          1.074        0.136
  YS02001887           JUNCTION        0.89          0.735        0.215
  YS02001890           JUNCTION        0.93          0.760        0.000
  YS02001898           JUNCTION        0.73          0.523        0.217
  YS02001901           JUNCTION        0.86          0.670        0.200
  YS02001904           JUNCTION        0.84          0.635        0.215
  YS02001907           JUNCTION        1.48          0.950        0.000
  YS02001910           JUNCTION        0.97          0.779        0.321
  YS02001915           JUNCTION        0.76          0.590        0.410
  YS02001918           JUNCTION        0.52          0.273        0.537
  YS02001619           JUNCTION        5.19          0.610        0.000
  YS02001629           JUNCTION        5.20          0.470        0.000
  YS02001641           JUNCTION        5.62          0.998        0.102
  YS02001644           JUNCTION        5.62          0.920        0.000
  YS02001652           JUNCTION        5.36          1.130        0.000
  YS02001655           JUNCTION        5.21          1.200        0.000
  YS02001920           JUNCTION        0.55          0.351        0.789
  YS02001658           JUNCTION        5.07          1.300        0.000
  YS02001661           JUNCTION        0.22          1.390        0.000
  YS02001622           JUNCTION        5.22          0.620        0.000
  YS02001633           JUNCTION        5.60          1.012        0.048
  YS02001649           JUNCTION        5.64          1.050        0.000
  YS02001757           JUNCTION        5.74          1.210        0.000
  YS02001895           JUNCTION        0.75          0.557        0.193
  YS02001625           JUNCTION        5.37          0.780        0.000
  YS02163301           JUNCTION        5.49          0.942        0.088
  YS02163601           JUNCTION        5.64          1.080        0.000
  YS02164001           JUNCTION        5.60          1.020        0.080
  YS02001647           JUNCTION        5.37          0.811        0.089
  YS02006553           JUNCTION        1.55          0.965        0.225
  YS02006561           JUNCTION        0.65          0.283        0.867
  YS02006556           JUNCTION        1.20          0.878        0.472
  YS02006558           JUNCTION        1.15          0.859        0.541
  YS02001783           JUNCTION        1.20          1.600        0.000
  YS02001784           JUNCTION        1.23          1.490        0.000
  YS02001786           JUNCTION        1.20          1.249        0.181
  YS02001788           JUNCTION        1.19          0.926        0.554
  YS02001790           JUNCTION        2.28          1.157        0.000
  YS02001791           JUNCTION        2.42          0.822        1.098
  YS02001793           JUNCTION        2.49          0.960        1.640
  
  
  *********************
  Node Flooding Summary
  *********************
  
  Flooding refers to all water that overflows a node, whether it ponds or not.
  --------------------------------------------------------------------------
                                                             Total   Maximum
                                 Maximum   Time of Max       Flood    Ponded
                        Hours       Rate    Occurrence      Volume     Depth
  Node                 Flooded       LPS   days hr:min    10^6 ltr    Meters
  --------------------------------------------------------------------------
  YS02001748              0.01    206.90      0  02:43       0.000     0.000
  YS02001779              2.38    280.33      0  03:30       0.770     0.000
  YS02001890              0.01      0.05      0  03:00       0.000     0.000
  YS02001907              0.38    300.01      0  02:59       0.207     0.000
  YS02001619              0.01     35.39      0  02:42       0.000     0.000
  YS02001629              0.01     32.09      0  02:43       0.000     0.000
  YS02001644              4.10    990.14      0  03:26       5.656     0.000
  YS02001652              0.01     26.72      0  02:35       0.000     0.000
  YS02001655              0.01    297.34      0  02:35       0.000     0.000
  YS02001658              0.01    374.58      0  02:41       0.001     0.000
  YS02001661              0.01    168.39      0  03:08       0.001     0.000
  YS02001622              0.01     45.82      0  02:41       0.000     0.000
  YS02001649              0.09     49.11      0  03:08       0.005     0.000
  YS02001757              0.01     11.65      0  02:45       0.000     0.000
  YS02001625              0.85    167.47      0  03:01       0.231     0.000
  YS02163601              0.01      2.39      0  02:43       0.000     0.000
  YS02001783              0.01     95.14      0  02:42       0.000     0.000
  YS02001784              0.01     28.60      0  02:42       0.000     0.000
  YS02001790              0.01    107.45      0  02:41       0.000     0.000
  JK-storage              2.10    698.60      0  03:50       2.841     0.000
  XR-storage              4.11    581.52      0  03:20       2.560     0.000
  
  
  **********************
  Storage Volume Summary
  **********************
  
  --------------------------------------------------------------------------------------------------
                         Average     Avg  Evap Exfil       Maximum     Max    Time of Max    Maximum
                          Volume    Pcnt  Pcnt  Pcnt        Volume    Pcnt     Occurrence    Outflow
  Storage Unit           1000 m3    Full  Loss  Loss       1000 m3    Full    days hr:min        LPS
  --------------------------------------------------------------------------------------------------
  JK-storage               0.130      45     0     0         0.291     100       0  02:42     600.00
  CC-storage               2.975      19     0     0         3.833      24       0  04:32     400.00
  XR-storage               0.830      90     0     0         0.926     100       0  02:51     379.96
  
  
  ***********************
  Outfall Loading Summary
  ***********************
  
  -----------------------------------------------------------
                         Flow       Avg       Max       Total
                         Freq      Flow      Flow      Volume
  Outfall Node           Pcnt       LPS       LPS    10^6 ltr
  -----------------------------------------------------------
  WSC                  100.00    634.95    982.79      15.731
  3                     87.13    253.35    528.97       4.797
  4                     50.15     55.61    195.30       0.613
  5                      0.00      0.00      0.00       0.000
  -----------------------------------------------------------
  System                59.32    943.90   1648.43      21.140
  
  
  ********************
  Link Flow Summary
  ********************
  
  -----------------------------------------------------------------------------
                                 Maximum  Time of Max   Maximum    Max/    Max/
                                  |Flow|   Occurrence   |Veloc|    Full    Full
  Link                 Type          LPS  days hr:min     m/sec    Flow   Depth
  -----------------------------------------------------------------------------
  WS02003066WSF200     CONDUIT    659.76     0  03:06      2.86    0.11    0.26
  WS02006287WS02006284 CONDUIT    375.44     0  03:02      1.98    0.17    0.29
  WS02006284WS02006280 CONDUIT    375.54     0  03:02      2.22    0.16    0.27
  WS02006280WS02006229 CONDUIT    375.58     0  03:02      3.58    0.08    0.19
  WS02006229WS02006228 CONDUIT    652.72     0  03:02      1.30    2.16    1.00
  WS02006256WS02006235 CONDUIT    158.12     0  00:23      2.30    1.67    1.00
  WS02006253WS02006251 CONDUIT     81.02     0  03:01      0.46    0.24    0.98
  WS02006252WS02006251 CONDUIT    400.31     0  05:00      3.19    1.47    1.00
  WS02006251WS02006249 CONDUIT    452.91     0  02:20      1.25    1.31    0.95
  WS02006249WS02006248 CONDUIT    376.24     0  02:00      1.21    2.06    0.90
  WS02006248WS02006247 CONDUIT    370.10     0  02:01      1.19    0.81    0.95
  WS02006247WS02006245 CONDUIT    363.53     0  02:01      1.15    2.88    0.99
  WS02006245WS02006243 CONDUIT    354.37     0  02:01      1.21    1.05    1.00
  WS02006243WS02006242 CONDUIT    340.70     0  02:01      1.03    0.73    1.00
  WS02006242WS02006240 CONDUIT    324.81     0  02:01      0.91    1.29    1.00
  WS02006240WS02006239 CONDUIT    310.94     0  07:42      0.88    0.98    1.00
  WS02006239WS02006238 CONDUIT    310.37     0  07:50      0.85    0.99    1.00
  WS02006238WS02006235 CONDUIT    315.79     0  03:50      0.91    0.70    1.00
  WS02006235WS02006234 CONDUIT    392.66     0  05:10      1.04    4.14    1.00
  WS02006234WS02006232 CONDUIT    392.60     0  05:10      1.02    0.79    1.00
  WS02006232WS02006231 CONDUIT    392.59     0  05:10      1.06    0.82    1.00
  WS02006231WS02006230 CONDUIT    392.48     0  05:11      1.32    5.95    1.00
  WS02006230WS02006229 CONDUIT    402.77     0  05:11      1.05    8.96    1.00
  WS02006228WS02006109 CONDUIT    652.69     0  03:02      1.30    2.85    1.00
  WS02006116WS02004401 CONDUIT    663.26     0  03:02      0.86    0.91    0.96
  WS02006115WS02006116 CONDUIT    664.55     0  03:02      0.92    0.85    0.89
  WS02006113WS02006111 CONDUIT    685.58     0  03:02      2.59    0.82    0.53
  WS02006112WS02006115 CONDUIT    665.57     0  03:02      0.87    0.39    0.94
  WS02006111WS02006112 CONDUIT    653.07     0  03:02      1.72    0.31    0.71
  WS02006110WS02006113 CONDUIT    654.28     0  03:02      1.50    0.60    0.82
  WS02006109WS02006110 CONDUIT    653.87     0  03:02      1.30    1.26    1.00
  WS02004411WS02004412 CONDUIT    659.85     0  03:05      1.03    0.94    0.76
  WS02004401WS02004402 CONDUIT    661.66     0  03:02      0.85    0.79    0.98
  WS02004413WS02003067 CONDUIT    659.77     0  03:06      1.25    0.28    0.64
  WS02004412WS02004413 CONDUIT    659.87     0  03:05      0.94    0.44    0.84
  WS02004410WS02004411 CONDUIT    660.17     0  03:05      1.03    0.90    0.76
  WS02004409WS02004410 CONDUIT    660.27     0  03:04      1.04    0.85    0.76
  WS02004407WS02004409 CONDUIT    660.59     0  03:04      1.53    0.23    0.54
  WS02004406WS02004407 CONDUIT    660.67     0  03:04      1.19    0.30    0.66
  WS02004405WS02004406 CONDUIT    660.66     0  03:04      0.84    1.30    1.00
  WS02004404WS02004405 CONDUIT    660.60     0  03:04      0.88    6.47    1.00
  WS02004403WS02004404 CONDUIT    660.43     0  03:04      0.84    0.48    1.00
  WS02004402WS02004403 CONDUIT    661.07     0  03:03      0.84    0.95    0.99
  WS02004139WS02001211 CONDUIT    374.99     0  01:10      0.69    0.47    0.59
  WS02004138WS02004139 CONDUIT    379.56     0  01:10      2.95    0.08    0.44
  WS02003067WS02003066 CONDUIT    659.79     0  03:06      1.35    0.21    0.45
  WS02001213WS02003059 CONDUIT    377.00     0  01:12      0.68    0.62    0.78
  WS02001212WS02001213 CONDUIT    378.38     0  01:11      1.31    0.58    0.47
  WS02001211WS02001212 CONDUIT    378.95     0  01:11      0.77    0.29    0.65
  WS02003072WS02003073 CONDUIT    981.15     0  02:24      1.75    2.12    0.50
  WS02003069WS02003072 CONDUIT    981.15     0  02:23      1.64    0.47    0.52
  WS02003060WS02003069 CONDUIT    981.16     0  02:23      1.89    0.38    0.47
  WS02003059WS02003060 CONDUIT    375.11     0  01:13      0.93    0.24    0.67
  HS02004901HS02004770 CONDUIT     17.71     0  03:01      0.07    0.07    0.39
  HS02004876HS02004881 CONDUIT     71.90     0  03:01      0.92    0.76    0.11
  HS02004870HS02004876 CONDUIT     58.03     0  03:01      0.63    0.04    0.13
  HS02004842HS02004848 CONDUIT     11.42     0  03:01      0.05    0.01    0.30
  HS02004837HS02004842 CONDUIT     11.94     0  03:02      0.42    0.01    0.32
  HS02004830HS02004837 CONDUIT     41.69     0  03:01      0.56    0.04    0.11
  HS02004824HS02004830 CONDUIT     41.67     0  03:01      0.58    0.05    0.10
  HS02004817HS02004824 CONDUIT     81.58     0  03:01      0.25    0.04    0.47
  HS02004770HS02004777 CONDUIT     90.21     0  03:01      0.32    0.16    0.41
  HS02004799HS02004480 CONDUIT    226.97     0  03:01      0.78    0.29    0.42
  HS02004792HS02004799 CONDUIT    206.60     0  03:01      0.88    0.13    0.33
  HS02004788HS02004792 CONDUIT    118.94     0  03:01      1.01    0.08    0.17
  HS02004785HS02004788 CONDUIT     89.52     0  03:02      0.66    0.67    0.19
  HS02004777HS02004785 CONDUIT     89.64     0  03:01      0.38    0.11    0.33
  HS02004480HS02004478 CONDUIT    269.12     0  03:01      1.20    1.13    0.32
  HS02004479HS02004480 CONDUIT     44.17     0  03:02      0.23    0.04    0.40
  HS02004862HS02004870 CONDUIT     44.23     0  03:01      0.64    0.05    0.10
  HS02004848HS02004852 CONDUIT     20.44     0  03:01      0.44    0.02    0.07
  HS02004856HS02004862 CONDUIT     30.57     0  03:01      0.47    0.03    0.09
  HS02004852HS02004856 CONDUIT     20.26     0  03:01      0.24    0.02    0.12
  HS02004802HS02004478 CONDUIT    106.59     0  03:02      0.45    0.09    0.35
  HS02004478WS02006287 CONDUIT    375.27     0  03:01      1.68    0.11    0.25
  HS02004817HS02004807 CONDUIT     82.18     0  03:01      0.19    0.05    0.62
  HS02004807HS02004802 CONDUIT    106.49     0  03:01      0.38    0.20    0.40
  YS02001759YS02001757 CONDUIT    674.88     0  02:56      0.86    0.48    1.00
  YS02001762YS02001759 CONDUIT    342.85     0  02:56      0.44    0.39    1.00
  YS02001765YS02001762 CONDUIT    343.02     0  02:56      0.44    0.32    1.00
  YS02001770YS02001767 CONDUIT    342.50     0  02:56      0.44    1.36    1.00
  YS02001774YS02001770 CONDUIT    280.45     0  03:30      0.36    0.18    1.00
  YS02001779YS02001774 CONDUIT    280.53     0  03:30      0.36    0.14    1.00
  YS02001649YS02001757 CONDUIT    946.66     0  02:50      1.21    0.57    1.00
  YS02001767YS02001765 CONDUIT    342.92     0  02:56      0.44    0.43    1.00
  YS02006561YS02001783 CONDUIT    964.30     0  03:00      2.14    0.50    1.00
  YS02001783YS02001784 CONDUIT    964.26     0  03:00      1.92    1.33    1.00
  YS02001784YS02001785 CONDUIT    965.25     0  03:00      1.92    2.25    1.00
  YS02001788YS02001790 CONDUIT    965.43     0  03:00      2.32    0.71    1.00
  YS02001790YS02001791 CONDUIT    965.60     0  03:00      2.86    1.05    1.00
  YS02001791YS02001793 CONDUIT    965.67     0  03:00      5.72    0.41    1.00
  YS02001910YS02001907 CONDUIT    460.39     0  02:55      0.59    0.26    1.00
  YS02001786YS02001788 CONDUIT    965.29     0  03:00      2.23    1.86    1.00
  YS02001915YS02001910 CONDUIT    460.42     0  02:55      0.59    0.23    1.00
  YS02001918YS02001915 CONDUIT    223.71     0  02:55      0.44    0.12    1.00
  YS02001923YS02001920 CONDUIT    220.08     0  02:55      0.68    0.10    1.00
  YS02001926YS02001923 CONDUIT    233.60     0  02:55      0.79    0.33    0.90
  YS02001929YS02001926 CONDUIT    198.31     0  02:54      0.84    0.09    0.80
  YS02001920YS02001918 CONDUIT    222.95     0  02:55      0.67    0.22    1.00
  YS02001629YS02163301 CONDUIT    215.95     0  02:39      0.27    0.27    1.00
  YS02001619YS02001622 CONDUIT    257.47     0  03:01      0.61    0.38    1.00
  YS02001622YS02001625 CONDUIT    257.37     0  03:01      0.33    0.14    1.00
  YS02001625YS02001629 CONDUIT    209.24     0  02:50      0.27    0.10    1.00
  YS02163301YS02001633 CONDUIT    216.06     0  02:39      0.28    0.20    1.00
  YS02163601YS02164001 CONDUIT    441.63     0  02:50      0.56    0.39    1.00
  YS02164001YS02001641 CONDUIT    441.15     0  02:50      0.56    0.60    1.00
  YS02001641YS02001644 CONDUIT    441.32     0  02:50      0.56    1.43    1.00
  YS02001647YS02001649 CONDUIT    673.01     0  02:50      0.86    0.36    1.00
  YS02006553YS02006556 CONDUIT    667.20     0  03:17      0.85    0.57    1.00
  YS02006556YS02006558 CONDUIT    667.43     0  03:17      0.85    0.53    1.00
  YSB6556YSB1171       CONDUIT     24.81     0  03:03      0.09    0.03    0.67
  YS02001907YS02006553 CONDUIT    667.28     0  03:17      0.74    0.78    1.00
  YS02006558YS02006561 CONDUIT    964.25     0  03:00      3.41    2.13    1.00
  YS02001633YS02163601 CONDUIT    441.48     0  02:50      0.56    0.46    1.00
  YS02001644YS02001647 CONDUIT    673.16     0  02:50      0.86    0.40    1.00
  YS02001745YS02001748 CONDUIT    606.20     0  02:43      1.48    0.23    0.94
  YS02001748YS02001751 CONDUIT    323.78     0  02:39      1.05    0.16    1.00
  YS02001751YS02001754 CONDUIT    310.56     0  03:01      0.88    0.15    1.00
  YS02001754YS02001757 CONDUIT    310.71     0  03:01      0.40    0.13    1.00
  YS02001882YS02001884 CONDUIT     25.79     0  02:45      0.09    0.03    1.00
  YS02001884YS02001887 CONDUIT     54.33     0  02:44      0.07    0.07    1.00
  YS02001890YS02001895 CONDUIT    453.63     0  03:01      0.58    0.21    1.00
  YS02001895YS02001898 CONDUIT    453.73     0  03:01      0.58    0.79    1.00
  YS02001898YS02001901 CONDUIT    453.71     0  03:01      0.58    0.29    1.00
  YS02001901YS02001904 CONDUIT    453.57     0  03:01      0.58    0.70    1.00
  YS02001904YS02001907 CONDUIT    453.67     0  03:01      0.58    0.16    1.00
  YS02001887YS02001890 CONDUIT    453.70     0  03:01      0.58    0.78    1.00
  YS02001652YS02001649 CONDUIT    374.50     0  03:01      0.50    0.19    1.00
  YS02001655YS02001652 CONDUIT    374.69     0  03:01      0.93    0.18    1.00
  YS02001658YS02001655 CONDUIT    444.16     0  02:35      1.21    0.19    1.00
  YS02001661YS02001658 CONDUIT    645.19     0  02:40      1.56    0.25    1.00
  YS02001664YS02001661 CONDUIT    692.88     0  02:55      1.60    0.22    0.71
  YSB1154YSB6556       CONDUIT     24.91     0  03:01      0.18    0.04    0.56
  YSB1174YSB1171       CONDUIT     18.78     0  03:01      0.07    0.03    0.68
  YSB1171HS02004479    CONDUIT     42.82     0  03:02      0.54    0.03    0.53
  HS02004881HS02006253 CONDUIT     79.15     0  03:01      1.97    0.02    0.28
  YS02001793JiankangQianchi CONDUIT    965.58     0  03:00     15.23    0.08    1.00
  YS02001757CaochengTiaoxuchi CONDUIT   1797.98     0  02:51      2.46    0.79    1.00
  WSF200WS02003060     CONDUIT    659.50     0  03:05      1.94    0.15    0.36
  1                    CONDUIT    982.79     0  02:24      3.31    0.34    0.40
  2                    CONDUIT    195.30     0  02:20      5.80    0.47    0.48
  3                    CONDUIT    528.97     0  02:20      9.89    0.84    0.71
  4                    CONDUIT      0.00     0  00:00      0.00    0.00    0.00
  CC-Pump-1            PUMP       200.00     0  02:00              1.00
  CC-Pump-2            PUMP       200.00     0  02:00              1.00
  JK-Pump-1            PUMP       300.00     0  00:30              1.00
  JK-Pump-2            PUMP       300.00     0  00:30              1.00
  XR-Pump-1            PUMP        95.00     0  00:30              1.00
  XR-Pump-2            PUMP        95.00     0  00:00              1.00
  XR-Pump-3            PUMP        95.00     0  00:40              1.00
  XR-Pump-4            PUMP        95.00     0  00:00              1.00
  
  
  ***************************
  Flow Classification Summary
  ***************************
  
  -------------------------------------------------------------------------------------
                      Adjusted    ---------- Fraction of Time in Flow Class ---------- 
                       /Actual         Up    Down  Sub   Sup   Up    Down  Norm  Inlet 
  Conduit               Length    Dry  Dry   Dry   Crit  Crit  Crit  Crit  Ltd   Ctrl  
  -------------------------------------------------------------------------------------
  WS02003066WSF200        1.00   0.04  0.01  0.00  0.00  0.95  0.00  0.00  0.60  0.00
  WS02006287WS02006284    1.00   0.03  0.01  0.00  0.59  0.37  0.00  0.00  0.65  0.00
  WS02006284WS02006280    1.00   0.04  0.00  0.00  0.00  0.00  0.00  0.96  0.00  0.00
  WS02006280WS02006229    1.00   0.04  0.00  0.00  0.00  0.00  0.00  0.96  0.00  0.00
  WS02006229WS02006228    1.00   0.00  0.00  0.00  1.00  0.00  0.00  0.00  0.00  0.00
  WS02006256WS02006235    1.00   0.01  0.00  0.00  0.99  0.00  0.00  0.00  0.00  0.00
  WS02006253WS02006251    1.00   0.01  0.02  0.00  0.96  0.00  0.00  0.00  0.00  0.00
  WS02006252WS02006251    1.00   0.06  0.00  0.00  0.00  0.00  0.94  0.00  0.00  0.00
  WS02006251WS02006249    1.00   0.00  0.00  0.00  1.00  0.00  0.00  0.00  0.24  0.00
  WS02006249WS02006248    1.00   0.00  0.00  0.00  0.91  0.00  0.09  0.00  0.00  0.00
  WS02006248WS02006247    1.00   0.00  0.00  0.00  0.98  0.00  0.00  0.02  0.12  0.00
  WS02006247WS02006245    1.00   0.00  0.00  0.00  0.98  0.00  0.00  0.02  0.00  0.00
  WS02006245WS02006243    1.00   0.00  0.00  0.00  0.96  0.00  0.00  0.03  0.01  0.00
  WS02006243WS02006242    1.00   0.01  0.00  0.00  0.99  0.00  0.00  0.00  0.17  0.00
  WS02006242WS02006240    1.00   0.01  0.00  0.00  0.99  0.00  0.00  0.00  0.00  0.00
  WS02006240WS02006239    1.00   0.01  0.00  0.00  0.97  0.00  0.00  0.02  0.01  0.00
  WS02006239WS02006238    1.00   0.01  0.00  0.00  0.99  0.00  0.00  0.00  0.00  0.00
  WS02006238WS02006235    1.00   0.01  0.00  0.00  0.99  0.00  0.00  0.00  0.00  0.00
  WS02006235WS02006234    1.00   0.01  0.00  0.00  0.97  0.00  0.02  0.00  0.00  0.00
  WS02006234WS02006232    1.00   0.01  0.00  0.00  0.99  0.00  0.00  0.00  0.00  0.00
  WS02006232WS02006231    1.00   0.01  0.00  0.00  0.99  0.00  0.00  0.00  0.00  0.00
  WS02006231WS02006230    1.00   0.01  0.00  0.00  0.74  0.00  0.25  0.00  0.00  0.00
  WS02006230WS02006229    1.00   0.00  0.00  0.00  0.99  0.00  0.00  0.01  0.00  0.00
  WS02006228WS02006109    1.00   0.00  0.00  0.00  1.00  0.00  0.00  0.00  0.00  0.00
  WS02006116WS02004401    1.00   0.03  0.00  0.00  0.97  0.00  0.00  0.00  0.00  0.00
  WS02006115WS02006116    1.00   0.02  0.00  0.00  0.97  0.00  0.00  0.00  0.00  0.00
  WS02006113WS02006111    1.00   0.02  0.00  0.00  0.00  0.98  0.00  0.00  0.09  0.00
  WS02006112WS02006115    1.00   0.02  0.01  0.00  0.97  0.00  0.00  0.00  0.00  0.00
  WS02006111WS02006112    1.00   0.02  0.00  0.00  0.98  0.00  0.00  0.00  0.88  0.00
  WS02006110WS02006113    1.00   0.00  0.01  0.00  0.98  0.00  0.00  0.00  0.00  0.00
  WS02006109WS02006110    1.00   0.00  0.00  0.00  1.00  0.00  0.00  0.00  0.00  0.00
  WS02004411WS02004412    1.00   0.04  0.00  0.00  0.96  0.00  0.00  0.00  0.00  0.00
  WS02004401WS02004402    1.00   0.03  0.00  0.00  0.97  0.00  0.00  0.00  0.00  0.00
  WS02004413WS02003067    1.00   0.04  0.01  0.00  0.00  0.00  0.95  0.00  0.00  0.00
  WS02004412WS02004413    1.00   0.04  0.00  0.00  0.96  0.00  0.00  0.00  0.03  0.00
  WS02004410WS02004411    1.00   0.04  0.00  0.00  0.96  0.00  0.00  0.00  0.03  0.00
  WS02004409WS02004410    1.00   0.04  0.00  0.00  0.96  0.00  0.00  0.00  0.01  0.00
  WS02004407WS02004409    1.00   0.04  0.00  0.00  0.96  0.00  0.00  0.00  0.86  0.00
  WS02004406WS02004407    1.00   0.00  0.03  0.00  0.96  0.00  0.00  0.00  0.00  0.00
  WS02004405WS02004406    1.00   0.00  0.00  0.00  1.00  0.00  0.00  0.00  0.04  0.00
  WS02004404WS02004405    1.00   0.00  0.00  0.00  1.00  0.00  0.00  0.00  0.00  0.00
  WS02004403WS02004404    1.00   0.00  0.03  0.00  0.97  0.00  0.00  0.00  0.01  0.00
  WS02004402WS02004403    1.00   0.03  0.00  0.00  0.97  0.00  0.00  0.00  0.00  0.00
  WS02004139WS02001211    1.00   0.00  0.00  0.00  1.00  0.00  0.00  0.00  0.00  0.00
  WS02004138WS02004139    1.00   0.00  0.00  0.00  1.00  0.00  0.00  0.00  1.00  0.00
  WS02003067WS02003066    1.00   0.05  0.00  0.00  0.95  0.00  0.00  0.00  0.00  0.00
  WS02001213WS02003059    1.00   0.00  0.00  0.00  1.00  0.00  0.00  0.00  0.00  0.00
  WS02001212WS02001213    1.00   0.00  0.00  0.00  0.83  0.00  0.17  0.00  0.00  0.00
  WS02001211WS02001212    1.00   0.00  0.00  0.00  1.00  0.00  0.00  0.00  0.00  0.00
  WS02003072WS02003073    1.00   0.00  0.00  0.00  0.00  0.00  0.00  1.00  0.00  0.00
  WS02003069WS02003072    1.00   0.00  0.00  0.00  1.00  0.00  0.00  0.00  0.26  0.00
  WS02003060WS02003069    1.00   0.00  0.00  0.00  1.00  0.00  0.00  0.00  0.07  0.00
  WS02003059WS02003060    1.00   0.00  0.00  0.00  1.00  0.00  0.00  0.00  0.01  0.00
  HS02004901HS02004770    1.00   0.03  0.00  0.00  0.96  0.00  0.00  0.00  0.00  0.00
  HS02004876HS02004881    1.00   0.00  0.00  0.00  0.92  0.08  0.00  0.00  0.00  0.00
  HS02004870HS02004876    1.00   0.00  0.00  0.00  1.00  0.00  0.00  0.00  0.95  0.00
  HS02004842HS02004848    1.00   0.00  0.04  0.00  0.96  0.00  0.00  0.00  0.58  0.00
  HS02004837HS02004842    1.00   0.00  0.00  0.00  1.00  0.00  0.00  0.00  0.11  0.00
  HS02004830HS02004837    1.00   0.00  0.00  0.00  1.00  0.00  0.00  0.00  0.99  0.00
  HS02004824HS02004830    1.00   0.00  0.00  0.00  1.00  0.00  0.00  0.00  0.00  0.00
  HS02004817HS02004824    1.00   0.00  0.00  0.00  1.00  0.00  0.00  0.00  1.00  0.00
  HS02004770HS02004777    1.00   0.00  0.03  0.00  0.96  0.00  0.00  0.00  0.03  0.00
  HS02004799HS02004480    1.00   0.00  0.01  0.00  0.96  0.00  0.04  0.00  0.00  0.00
  HS02004792HS02004799    1.00   0.00  0.00  0.00  1.00  0.00  0.00  0.00  0.98  0.00
  HS02004788HS02004792    1.00   0.00  0.00  0.00  1.00  0.00  0.00  0.00  0.98  0.00
  HS02004785HS02004788    1.00   0.00  0.00  0.00  1.00  0.00  0.00  0.00  0.00  0.00
  HS02004777HS02004785    1.00   0.00  0.00  0.00  1.00  0.00  0.00  0.00  0.14  0.00
  HS02004480HS02004478    1.00   0.04  0.00  0.00  0.66  0.00  0.00  0.31  0.00  0.00
  HS02004479HS02004480    1.00   0.01  0.00  0.00  0.99  0.00  0.00  0.00  0.12  0.00
  HS02004862HS02004870    1.00   0.00  0.00  0.00  1.00  0.00  0.00  0.00  0.05  0.00
  HS02004848HS02004852    1.00   0.04  0.00  0.00  0.96  0.00  0.00  0.00  0.61  0.00
  HS02004856HS02004862    1.00   0.00  0.05  0.00  0.95  0.00  0.00  0.00  0.80  0.00
  HS02004852HS02004856    1.00   0.03  0.00  0.00  0.96  0.00  0.00  0.00  0.85  0.00
  HS02004802HS02004478    1.00   0.04  0.00  0.00  0.96  0.00  0.00  0.00  0.03  0.00
  HS02004478WS02006287    1.00   0.04  0.00  0.00  0.72  0.23  0.00  0.00  0.66  0.00
  HS02004817HS02004807    1.00   0.00  0.04  0.00  0.96  0.00  0.00  0.00  0.01  0.00
  HS02004807HS02004802    1.00   0.04  0.00  0.00  0.96  0.00  0.00  0.00  0.00  0.00
  YS02001759YS02001757    1.00   0.00  0.00  0.00  1.00  0.00  0.00  0.00  0.16  0.00
  YS02001762YS02001759    1.00   0.00  0.00  0.00  1.00  0.00  0.00  0.00  0.03  0.00
  YS02001765YS02001762    1.00   0.00  0.00  0.00  1.00  0.00  0.00  0.00  0.16  0.00
  YS02001770YS02001767    1.00   0.00  0.00  0.00  1.00  0.00  0.00  0.00  0.00  0.00
  YS02001774YS02001770    1.00   0.00  0.04  0.00  0.96  0.00  0.00  0.00  0.04  0.00
  YS02001779YS02001774    1.00   0.00  0.00  0.00  1.00  0.00  0.00  0.00  0.21  0.00
  YS02001649YS02001757    1.00   0.00  0.00  0.00  1.00  0.00  0.00  0.00  0.17  0.00
  YS02001767YS02001765    1.00   0.00  0.00  0.00  1.00  0.00  0.00  0.00  0.00  0.00
  YS02006561YS02001783    1.00   0.05  0.00  0.00  0.39  0.56  0.00  0.00  0.55  0.00
  YS02001783YS02001784    1.00   0.00  0.05  0.00  0.95  0.00  0.00  0.00  0.01  0.00
  YS02001784YS02001785    1.00   0.00  0.00  0.00  1.00  0.00  0.00  0.00  0.20  0.00
  YS02001788YS02001790    1.00   0.00  0.00  0.00  0.45  0.55  0.00  0.00  0.49  0.00
  YS02001790YS02001791    1.00   0.00  0.00  0.00  0.40  0.60  0.00  0.00  0.43  0.00
  YS02001791YS02001793    1.00   0.00  0.00  0.00  0.41  0.59  0.00  0.00  0.01  0.00
  YS02001910YS02001907    1.00   0.00  0.00  0.00  1.00  0.00  0.00  0.00  0.13  0.00
  YS02001786YS02001788    1.00   0.00  0.00  0.00  0.43  0.57  0.00  0.00  0.00  0.00
  YS02001915YS02001910    1.00   0.00  0.00  0.00  0.99  0.01  0.00  0.00  0.18  0.00
  YS02001918YS02001915    1.00   0.00  0.00  0.00  1.00  0.00  0.00  0.00  0.58  0.00
  YS02001923YS02001920    1.00   0.00  0.00  0.00  1.00  0.00  0.00  0.00  0.86  0.00
  YS02001926YS02001923    1.00   0.00  0.03  0.00  0.14  0.00  0.83  0.00  0.00  0.00
  YS02001929YS02001926    1.00   0.00  0.03  0.00  0.97  0.00  0.00  0.00  0.78  0.00
  YS02001920YS02001918    1.00   0.00  0.00  0.00  1.00  0.00  0.00  0.00  0.00  0.00
  YS02001629YS02163301    1.00   0.04  0.00  0.00  0.96  0.00  0.00  0.00  0.00  0.00
  YS02001619YS02001622    1.00   0.03  0.00  0.00  0.97  0.00  0.00  0.00  0.00  0.00
  YS02001622YS02001625    1.00   0.04  0.00  0.00  0.96  0.00  0.00  0.00  0.07  0.00
  YS02001625YS02001629    1.00   0.04  0.01  0.00  0.94  0.00  0.01  0.00  0.00  0.00
  YS02163301YS02001633    1.00   0.00  0.04  0.00  0.96  0.00  0.00  0.00  0.00  0.00
  YS02163601YS02164001    1.00   0.00  0.03  0.00  0.97  0.00  0.00  0.00  0.00  0.00
  YS02164001YS02001641    1.00   0.00  0.03  0.00  0.97  0.00  0.00  0.00  0.06  0.00
  YS02001641YS02001644    1.00   0.00  0.00  0.00  1.00  0.00  0.00  0.00  0.00  0.00
  YS02001647YS02001649    1.00   0.00  0.05  0.00  0.95  0.00  0.00  0.00  0.01  0.00
  YS02006553YS02006556    1.00   0.00  0.00  0.00  1.00  0.00  0.00  0.00  0.03  0.00
  YS02006556YS02006558    1.00   0.00  0.00  0.00  1.00  0.00  0.00  0.00  0.00  0.00
  YSB6556YSB1171          1.00   0.01  0.03  0.00  0.97  0.00  0.00  0.00  0.00  0.00
  YS02001907YS02006553    1.00   0.00  0.00  0.00  1.00  0.00  0.00  0.00  0.00  0.00
  YS02006558YS02006561    1.00   0.05  0.00  0.00  0.18  0.77  0.00  0.00  0.48  0.00
  YS02001633YS02163601    1.00   0.00  0.00  0.00  1.00  0.00  0.00  0.00  0.16  0.00
  YS02001644YS02001647    1.00   0.00  0.05  0.00  0.95  0.00  0.00  0.00  0.00  0.00
  YS02001745YS02001748    1.00   0.00  0.00  0.00  0.90  0.01  0.00  0.09  0.06  0.00
  YS02001748YS02001751    1.00   0.00  0.00  0.00  0.98  0.02  0.00  0.00  0.15  0.00
  YS02001751YS02001754    1.00   0.00  0.00  0.00  0.95  0.00  0.00  0.05  0.02  0.00
  YS02001754YS02001757    1.00   0.00  0.00  0.00  1.00  0.00  0.00  0.00  0.20  0.00
  YS02001882YS02001884    1.00   0.04  0.00  0.00  0.96  0.00  0.00  0.00  0.00  0.00
  YS02001884YS02001887    1.00   0.02  0.01  0.00  0.97  0.00  0.00  0.00  0.00  0.00
  YS02001890YS02001895    1.00   0.00  0.04  0.00  0.96  0.00  0.00  0.00  0.00  0.00
  YS02001895YS02001898    1.00   0.04  0.00  0.00  0.95  0.00  0.01  0.00  0.00  0.00
  YS02001898YS02001901    1.00   0.04  0.00  0.00  0.96  0.00  0.00  0.00  0.02  0.00
  YS02001901YS02001904    1.00   0.04  0.00  0.00  0.96  0.00  0.00  0.00  0.00  0.00
  YS02001904YS02001907    1.00   0.00  0.04  0.00  0.96  0.00  0.00  0.00  0.00  0.00
  YS02001887YS02001890    1.00   0.00  0.00  0.00  1.00  0.00  0.00  0.00  0.00  0.00
  YS02001652YS02001649    1.00   0.00  0.00  0.00  1.00  0.00  0.00  0.00  0.18  0.00
  YS02001655YS02001652    1.00   0.00  0.00  0.00  0.95  0.00  0.00  0.05  0.02  0.00
  YS02001658YS02001655    1.00   0.00  0.04  0.00  0.94  0.02  0.00  0.00  0.11  0.00
  YS02001661YS02001658    1.00   0.04  0.00  0.00  0.90  0.07  0.00  0.00  0.07  0.00
  YS02001664YS02001661    1.00   0.03  0.00  0.00  0.85  0.11  0.00  0.00  0.22  0.00
  YSB1154YSB6556          1.00   0.03  0.00  0.00  0.97  0.00  0.00  0.00  0.02  0.00
  YSB1174YSB1171          1.00   0.01  0.02  0.00  0.97  0.00  0.00  0.00  0.00  0.00
  YSB1171HS02004479       1.00   0.01  0.00  0.00  0.99  0.00  0.00  0.00  0.11  0.00
  HS02004881HS02006253    1.00   0.01  0.00  0.00  0.83  0.02  0.00  0.14  0.67  0.00
  YS02001793JiankangQianchi    1.00   0.00  0.00  0.00  0.53  0.47  0.00  0.00  0.16  0.00
  YS02001757CaochengTiaoxuchi    1.00   0.00  0.06  0.00  0.91  0.03  0.00  0.00  0.00  0.00
  WSF200WS02003060        1.00   0.00  0.04  0.00  0.67  0.29  0.00  0.00  0.19  0.00
  1                       1.00   0.00  0.00  0.00  0.00  1.00  0.00  0.00  0.27  0.00
  2                       1.00   0.49  0.00  0.00  0.00  0.51  0.00  0.00  0.10  0.00
  3                       1.00   0.13  0.00  0.00  0.00  0.87  0.00  0.00  0.04  0.00
  4                       1.00   1.00  0.00  0.00  0.00  0.00  0.00  0.00  0.00  0.00
  
  
  *************************
  Conduit Surcharge Summary
  *************************
  
  ----------------------------------------------------------------------------
                                                           Hours        Hours 
                         --------- Hours Full --------   Above Full   Capacity
  Conduit                Both Ends  Upstream  Dnstream   Normal Flow   Limited
  ----------------------------------------------------------------------------
  WS02006229WS02006228        2.67      2.97      2.67      4.95         2.67
  WS02006256WS02006235        6.05      6.05      7.48      2.53         0.01
  WS02006253WS02006251        0.01      0.01      0.15      0.01         0.01
  WS02006252WS02006251        1.37      1.37      2.63      2.31         0.01
  WS02006251WS02006249        0.01      0.01      0.01      1.36         0.01
  WS02006249WS02006248        0.01      0.01      0.01      5.04         0.01
  WS02006247WS02006245        0.01      0.10      0.01      5.31         0.01
  WS02006245WS02006243        0.03      0.03      0.32      0.04         0.01
  WS02006243WS02006242        0.36      0.36      1.87      0.01         0.01
  WS02006242WS02006240        0.92      0.92      2.46      2.59         0.01
  WS02006240WS02006239        1.10      1.10      1.27      0.01         0.01
  WS02006239WS02006238        2.31      2.31      2.51      0.01         0.01
  WS02006238WS02006235        2.30      2.30      2.94      0.01         0.01
  WS02006235WS02006234        1.07      1.07      2.00      6.06         0.01
  WS02006234WS02006232        1.33      1.33      3.17      0.01         0.01
  WS02006232WS02006231        0.91      0.91      3.17      0.01         0.01
  WS02006231WS02006230        0.58      0.58      0.96      6.06         0.01
  WS02006230WS02006229        4.04      4.70      4.04      6.17         4.04
  WS02006228WS02006109        2.82      3.48      2.82      5.41         2.82
  WS02006112WS02006115        0.01      0.01      1.30      0.01         0.01
  WS02006111WS02006112        0.01      0.01      5.05      0.01         0.01
  WS02006110WS02006113        0.01      0.01      3.21      0.01         0.01
  WS02006109WS02006110        1.22      1.22      3.48      1.22         0.01
  WS02004406WS02004407        0.01      0.01      0.36      0.01         0.01
  WS02004405WS02004406        0.36      0.41      0.36      1.25         0.36
  WS02004404WS02004405        0.41      0.66      0.41      6.00         0.41
  WS02004403WS02004404        0.01      0.01      0.66      0.01         0.01
  WS02003072WS02003073        0.01      0.01      0.01      5.11         0.01
  HS02004480HS02004478        0.01      0.01      0.01      0.25         0.01
  YS02001759YS02001757        5.66      5.66      5.74      0.01         0.01
  YS02001762YS02001759        5.63      5.63      5.66      0.01         0.01
  YS02001765YS02001762        5.61      5.61      5.63      0.01         0.01
  YS02001770YS02001767        5.45      5.46      5.48      0.33         0.76
  YS02001774YS02001770        5.41      5.41      5.63      0.01         0.01
  YS02001779YS02001774        5.34      5.34      5.63      0.01         0.01
  YS02001649YS02001757        5.64      5.64      5.74      0.01         0.01
  YS02001767YS02001765        5.48      5.48      5.61      0.01         0.01
  YS02006561YS02001783        0.65      0.65      1.20      0.01         0.01
  YS02001783YS02001784        1.20      1.20      1.23      1.16         0.98
  YS02001784YS02001785        1.20      1.23      1.20      2.07         1.20
  YS02001788YS02001790        1.19      1.19      2.28      0.01         0.01
  YS02001790YS02001791        2.28      2.28      2.42      0.48         0.48
  YS02001791YS02001793        2.42      2.42      2.52      0.01         0.01
  YS02001910YS02001907        0.97      0.97      1.48      0.01         0.01
  YS02001786YS02001788        1.19      1.20      1.19      1.68         1.19
  YS02001915YS02001910        0.76      0.76      0.97      0.01         0.01
  YS02001918YS02001915        0.52      0.52      0.76      0.01         0.01
  YS02001923YS02001920        0.28      0.28      0.55      0.01         0.01
  YS02001920YS02001918        0.52      0.52      0.55      0.01         0.01
  YS02001629YS02163301        5.40      5.40      5.49      0.01         0.01
  YS02001619YS02001622        5.19      5.19      5.22      0.01         0.01
  YS02001622YS02001625        5.22      5.22      5.37      0.01         0.01
  YS02001625YS02001629        5.20      5.20      5.37      0.01         0.01
  YS02163301YS02001633        5.49      5.49      5.61      0.01         0.01
  YS02163601YS02164001        5.60      5.60      5.64      0.01         0.01
  YS02164001YS02001641        5.60      5.60      5.62      0.01         0.02
  YS02001641YS02001644        5.62      5.62      5.62      1.21         1.34
  YS02001647YS02001649        5.37      5.37      5.64      0.01         0.01
  YS02006553YS02006556        1.19      1.19      1.55      0.01         0.01
  YS02006556YS02006558        1.38      1.38      1.63      0.01         0.01
  YS02001907YS02006553        2.09      2.09      2.30      0.01         0.01
  YS02006558YS02006561        0.87      1.15      0.87      1.94         0.87
  YS02001633YS02163601        5.60      5.60      5.64      0.01         0.01
  YS02001644YS02001647        5.37      5.37      5.62      0.01         0.01
  YS02001745YS02001748        0.01      0.01      5.04      0.01         0.01
  YS02001748YS02001751        5.08      5.08      5.18      0.01         0.01
  YS02001751YS02001754        5.18      5.18      5.35      0.01         0.01
  YS02001754YS02001757        5.37      5.37      5.74      0.01         0.01
  YS02001882YS02001884        0.78      0.78      0.81      0.01         0.01
  YS02001884YS02001887        0.87      0.87      0.89      0.01         0.01
  YS02001890YS02001895        0.75      0.75      0.99      0.01         0.01
  YS02001895YS02001898        0.73      0.73      0.75      0.01         0.01
  YS02001898YS02001901        0.76      0.76      0.86      0.01         0.01
  YS02001901YS02001904        0.84      0.84      0.86      0.01         0.01
  YS02001904YS02001907        0.84      0.84      1.58      0.01         0.01
  YS02001887YS02001890        0.93      0.93      0.96      0.01         0.01
  YS02001652YS02001649        5.38      5.38      5.64      0.01         0.01
  YS02001655YS02001652        5.21      5.21      5.36      0.01         0.01
  YS02001658YS02001655        5.07      5.07      5.21      0.01         0.01
  YS02001661YS02001658        0.20      0.20      5.07      0.01         0.01
  YS02001664YS02001661        0.01      0.01      1.08      0.01         0.01
  YS02001793JiankangQianchi        2.49      2.49      3.32      0.01         0.01
  YS02001757CaochengTiaoxuchi        4.88      4.88      5.74      0.01         0.01
  
  
  ***************
  Pumping Summary
  ***************
  
  ---------------------------------------------------------------------------------------------------------
                                                  Min       Avg       Max     Total     Power    % Time Off
                        Percent   Number of      Flow      Flow      Flow    Volume     Usage    Pump Curve
  Pump                 Utilized   Start-Ups       LPS       LPS       LPS  10^6 ltr     Kw-hr    Low   High
  ---------------------------------------------------------------------------------------------------------
  CC-Pump-1               65.17           5      0.00    152.61    200.00     2.800      4.59    0.0   12.9
  CC-Pump-2               58.80           5      0.00    148.07    200.00     2.440      3.78    0.0   13.1
  JK-Pump-1               85.09           6      0.00    187.16    300.00     3.672     43.01    0.0    0.0
  JK-Pump-2               82.97           4      0.00    164.27    300.00     3.060     40.36    0.0    0.0
  XR-Pump-1               93.59           8      0.00     69.73     95.00     1.852     15.87    0.0    0.0
  XR-Pump-2               76.59           9      0.00     64.25     95.00     1.425     11.35    0.0    0.0
  XR-Pump-3               82.96           9      0.00     66.77     95.00     1.596     13.74    0.0    0.0
  XR-Pump-4               87.23           5      0.00     71.70     95.00     1.853     17.71    0.0    0.0
  

  Analysis begun on:  Sat Dec 25 00:05:11 2021
  Analysis ended on:  Sat Dec 25 00:05:15 2021
  Total elapsed time: 00:00:04