
  EPA STORM WATER MANAGEMENT MODEL - VERSION 5.1 (Build 5.3.0.dev0)
  --------------------------------------------------------------

  WARNING 04: minimum elevation drop used for Conduit WS02004404WS02004405
  WARNING 03: negative offset ignored for Link YS02001904YS02001907
  
  *********************************************************
  NOTE: The summary statistics displayed in this report are
  based on results found at every computational time step,  
  not just on results from each reporting time step.
  *********************************************************
  
  ****************
  Analysis Options
  ****************
  Flow Units ............... LPS
  Process Models:
    Rainfall/Runoff ........ YES
    RDII ................... NO
    Snowmelt ............... NO
    Groundwater ............ NO
    Flow Routing ........... YES
    Ponding Allowed ........ NO
    Water Quality .......... NO
  Infiltration Method ...... HORTON
  Flow Routing Method ...... DYNWAVE
  Surcharge Method ......... EXTRAN
  Starting Date ............ 08/28/2015 08:00:00
  Ending Date .............. 08/28/2015 15:50:00
  Antecedent Dry Days ...... 8.0
  Report Time Step ......... 00:01:00
  Wet Time Step ............ 00:01:00
  Dry Time Step ............ 00:01:00
  Routing Time Step ........ 5.00 sec
  Variable Time Step ....... YES
  Maximum Trials ........... 8
  Number of Threads ........ 4
  Head Tolerance ........... 0.001500 m
  
  
  **************************        Volume         Depth
  Runoff Quantity Continuity     hectare-m            mm
  **************************     ---------       -------
  Total Precipitation ......         5.556        12.164
  Evaporation Loss .........         0.000         0.000
  Infiltration Loss ........         1.427         3.124
  Surface Runoff ...........         3.072         6.726
  Final Storage ............         1.058         2.316
  Continuity Error (%) .....        -0.016
  
  
  **************************        Volume        Volume
  Flow Routing Continuity        hectare-m      10^6 ltr
  **************************     ---------     ---------
  Dry Weather Inflow .......         0.616         6.165
  Wet Weather Inflow .......         3.071        30.709
  Groundwater Inflow .......         0.000         0.000
  RDII Inflow ..............         0.000         0.000
  External Inflow ..........         0.102         1.024
  External Outflow .........         2.024        20.236
  Flooding Loss ............         1.249        12.490
  Evaporation Loss .........         0.000         0.000
  Exfiltration Loss ........         0.000         0.000
  Initial Stored Volume ....         0.076         0.761
  Final Stored Volume ......         0.653         6.532
  Continuity Error (%) .....        -1.554
  
  
  *************************
  Highest Continuity Errors
  *************************
  Node HS02004842 (16.24%)
  Node YS02001884 (11.44%)
  Node JK-storage (-5.67%)
  Node YSB1171 (3.12%)
  Node HS02004817 (2.99%)
  
  
  ***************************
  Time-Step Critical Elements
  ***************************
  Link WS02006252WS02006251 (45.74%)
  Link 3 (44.99%)
  Link WS02006238WS02006235 (3.40%)
  Link WS02006280WS02006229 (1.23%)
  
  
  ********************************
  Highest Flow Instability Indexes
  ********************************
  Link YS02001619YS02001622 (37)
  Link YS02163601YS02164001 (37)
  Link YS02001629YS02163301 (36)
  Link YS02163301YS02001633 (36)
  Link WS02006113WS02006111 (36)
  
  
  *************************
  Routing Time Step Summary
  *************************
  Minimum Time Step           :     0.39 sec
  Average Time Step           :     0.78 sec
  Maximum Time Step           :     5.00 sec
  Percent in Steady State     :    -0.00
  Average Iterations per Step :     4.46
  Percent Not Converging      :    20.08
  
  
  ***************************
  Subcatchment Runoff Summary
  ***************************
  
  ------------------------------------------------------------------------------------------------------------------------------
                            Total      Total      Total      Total     Imperv       Perv      Total       Total     Peak  Runoff
                           Precip      Runon       Evap      Infil     Runoff     Runoff     Runoff      Runoff   Runoff   Coeff
  Subcatchment                 mm         mm         mm         mm         mm         mm         mm    10^6 ltr      LPS
  ------------------------------------------------------------------------------------------------------------------------------
  sub0                      12.16       0.00       0.00       0.85      10.05       0.00      10.05        0.01     1.91   0.826
  sub1                      12.16       0.00       0.00       1.34       9.56       0.00       9.56        0.06    14.15   0.786
  sub2                      12.16       0.00       0.00       4.50       6.75       0.00       6.75        0.06    13.75   0.555
  sub3                      12.16       0.00       0.00       4.50       6.71       0.00       6.71        0.15    32.07   0.552
  sub4                      12.16       0.00       0.00       1.34       9.40       0.00       9.40        0.20    40.20   0.773
  sub5                      12.16       0.00       0.00       0.85       9.99       0.00       9.99        0.11    25.19   0.822
  sub7                      12.16       0.00       0.00       1.09       9.81       0.00       9.81        0.03     7.55   0.807
  sub8                      12.16       0.00       0.00       1.09       9.80       0.00       9.80        0.06    14.17   0.806
  sub9                      12.16       0.00       0.00       1.09       9.80       0.00       9.80        0.05    10.64   0.806
  sub10                     12.16       0.00       0.00       0.97       9.89       0.00       9.89        0.11    24.40   0.813
  sub11                     12.16       0.00       0.00       0.97       9.91       0.00       9.91        0.12    26.15   0.815
  sub12                     12.16       0.00       0.00       1.58       9.39       0.00       9.39        0.08    19.06   0.772
  sub14                     12.16       0.00       0.00       1.09       9.80       0.00       9.80        0.09    21.02   0.805
  sub15                     12.16       0.00       0.00       3.65       7.53       0.00       7.53        0.13    29.11   0.619
  sub16                     12.16       0.00       0.00       4.01       7.23       0.00       7.23        0.08    17.47   0.594
  sub17                     12.16       0.00       0.00       3.89       7.34       0.00       7.34        0.06    14.47   0.603
  sub22                     12.16       0.00       0.00       5.23       6.14       0.00       6.14        0.39    88.27   0.505
  sub23                     12.16       0.00       0.00       4.50       6.79       0.00       6.79        0.32    73.89   0.558
  sub60                     12.16       0.00       0.00       1.46       7.71       0.00       7.71        2.34   297.17   0.634
  sub61                     12.16       0.00       0.00       2.07       7.87       0.00       7.87        2.43   359.80   0.647
  sub62                     12.16       0.00       0.00       0.97       8.55       0.00       8.55        2.63   372.87   0.703
  sub63                     12.16       0.00       0.00       3.53       6.89       0.00       6.89        2.09   327.80   0.567
  sub64                     12.16       0.00       0.00       1.82       7.40       0.00       7.40        2.25   282.66   0.608
  sub65                     12.16       0.00       0.00       1.58       7.52       0.00       7.52        2.31   287.20   0.618
  sub66                     12.16       0.00       0.00       3.53       6.36       0.00       6.36        1.95   257.27   0.523
  sub67                     12.16       0.00       0.00       0.97       9.05       0.00       9.05        2.79   452.90   0.744
  sub68                     12.16       0.00       0.00       1.70       8.28       0.00       8.28        2.55   391.99   0.681
  sub69                     12.16       0.00       0.00       1.82       8.61       0.00       8.61        2.01   355.79   0.708
  sub70                     12.16       8.79       0.00       7.03      11.43       0.10      11.53        2.64   335.00   0.550
  sub71                     12.16       0.00       0.00       0.97       8.31       0.00       8.31        1.96   263.63   0.683
  sub72                     12.16       0.00       0.00       0.85       6.56       0.00       6.56        1.34   129.40   0.540
  sub73                     12.16      11.23       0.00       7.88      12.47       0.08      12.54        2.95   300.52   0.536
  sub74                     12.16       0.00       0.00       9.12       2.57       0.00       2.57        1.03   189.59   0.211
  
  
  ******************
  Node Depth Summary
  ******************
  
  ---------------------------------------------------------------------------------
                                 Average  Maximum  Maximum  Time of Max    Reported
                                   Depth    Depth      HGL   Occurrence   Max Depth
  Node                 Type       Meters   Meters   Meters  days hr:min      Meters
  ---------------------------------------------------------------------------------
  WS02001211           JUNCTION     0.66     0.78     5.61     0  03:21        0.78
  WS02001212           JUNCTION     0.39     0.49     5.55     0  03:21        0.49
  WS02001213           JUNCTION     0.62     0.74     5.50     0  03:22        0.74
  WS02003069           JUNCTION     0.45     0.59     5.17     0  03:05        0.59
  WS02003072           JUNCTION     0.52     0.64     5.02     0  03:06        0.64
  WS02003073           JUNCTION     0.31     0.40     4.46     0  03:06        0.40
  WS02003060           JUNCTION     0.40     0.52     5.45     0  03:05        0.52
  WS02003066           JUNCTION     0.24     0.33     5.88     0  03:06        0.33
  WS02003059           JUNCTION     0.68     0.79     5.48     0  03:22        0.79
  WS02003067           JUNCTION     0.59     0.75     6.07     0  03:05        0.75
  WS02004401           JUNCTION     0.70     0.99     6.99     0  03:03        0.99
  WS02004402           JUNCTION     0.73     1.01     6.97     0  03:03        1.01
  WS02004403           JUNCTION     0.75     1.01     6.94     0  03:03        1.01
  WS02004404           JUNCTION     0.83     1.07     6.92     0  03:03        1.07
  WS02004406           JUNCTION     0.83     1.04     6.87     0  03:04        1.04
  WS02004409           JUNCTION     0.52     0.76     6.53     0  03:04        0.76
  WS02004410           JUNCTION     0.54     0.77     6.49     0  03:05        0.77
  WS02004411           JUNCTION     0.55     0.77     6.45     0  03:05        0.77
  WS02004412           JUNCTION     0.57     0.77     6.41     0  03:05        0.77
  WS02004413           JUNCTION     0.72     0.92     6.39     0  03:05        0.92
  WS02004405           JUNCTION     0.82     1.06     6.91     0  03:03        1.05
  WS02006109           JUNCTION     0.79     1.12     7.74     0  03:01        1.10
  WS02006110           JUNCTION     0.77     1.02     7.61     0  03:01        1.01
  WS02006111           JUNCTION     0.23     0.38     7.09     0  03:02        0.38
  WS02006112           JUNCTION     0.88     1.21     7.10     0  03:03        1.21
  WS02006113           JUNCTION     0.36     0.52     7.41     0  03:02        0.52
  WS02006115           JUNCTION     0.60     0.91     7.05     0  03:03        0.91
  WS02006116           JUNCTION     0.68     0.98     7.02     0  03:02        0.98
  WS02006230           JUNCTION     0.77     1.19     7.94     0  03:01        1.19
  WS02006231           JUNCTION     0.52     0.85     7.98     0  03:01        0.85
  WS02006232           JUNCTION     0.65     0.98     8.02     0  03:00        0.97
  WS02006234           JUNCTION     0.57     0.89     8.05     0  03:00        0.89
  WS02006235           JUNCTION     0.60     0.93     8.09     0  03:00        0.91
  WS02006238           JUNCTION     0.63     0.95     8.10     0  03:00        0.94
  WS02006240           JUNCTION     0.52     0.84     8.13     0  03:00        0.83
  WS02006242           JUNCTION     0.58     0.89     8.16     0  03:00        0.89
  WS02006243           JUNCTION     0.45     0.77     8.19     0  03:00        0.77
  WS02006245           JUNCTION     0.43     0.73     8.22     0  03:00        0.73
  WS02006247           JUNCTION     0.45     0.73     8.23     0  03:00        0.73
  WS02006248           JUNCTION     0.39     0.66     8.25     0  03:00        0.66
  WS02006249           JUNCTION     0.42     0.66     8.26     0  03:00        0.66
  WS02006239           JUNCTION     0.58     0.90     8.11     0  03:00        0.89
  WS02006251           JUNCTION     0.41     0.71     8.38     0  03:00        0.71
  WS02006252           JUNCTION     0.35     0.59     8.83     0  05:56        0.59
  WS02006253           JUNCTION     0.44     0.75     8.39     0  03:00        0.74
  WS02006256           JUNCTION     1.06     1.22     8.15     0  03:00        1.22
  WS02004138           JUNCTION     0.15     0.19     7.44     0  00:20        0.19
  WS02004407           JUNCTION     0.23     0.33     6.65     0  03:04        0.33
  WS02006228           JUNCTION     0.80     1.19     7.84     0  03:00        1.19
  WS02006229           JUNCTION     0.78     1.20     7.90     0  03:00        1.20
  WS02006280           JUNCTION     0.07     0.19     8.46     0  03:02        0.19
  WS02006284           JUNCTION     0.37     0.55     8.95     0  03:02        0.55
  WS02006287           JUNCTION     0.11     0.28     9.24     0  03:01        0.28
  WSF200               JUNCTION     0.23     0.36     5.59     0  03:05        0.36
  HS02004901           JUNCTION     0.13     0.28    10.10     0  03:01        0.28
  HS02004881           JUNCTION     0.01     0.04     9.07     0  03:01        0.04
  HS02004876           JUNCTION     0.05     0.12     9.15     0  03:01        0.12
  HS02004870           JUNCTION     0.02     0.06     9.35     0  03:01        0.06
  HS02004862           JUNCTION     0.02     0.07     9.46     0  03:01        0.07
  HS02004856           JUNCTION     0.08     0.13     9.55     0  03:01        0.13
  HS02004852           JUNCTION     0.01     0.05     9.56     0  03:01        0.05
  HS02004848           JUNCTION     0.01     0.05     9.65     0  03:01        0.05
  HS02004842           JUNCTION     0.33     0.38     9.65     0  03:01        0.38
  HS02004837           JUNCTION     0.03     0.07     9.65     0  03:01        0.07
  HS02004830           JUNCTION     0.04     0.08     9.55     0  03:01        0.08
  HS02004824           JUNCTION     0.03     0.06     9.46     0  03:01        0.06
  HS02004817           JUNCTION     0.45     0.60     9.44     0  03:01        0.60
  HS02004807           JUNCTION     0.13     0.27     9.44     0  03:01        0.27
  HS02004802           JUNCTION     0.17     0.30     9.43     0  03:01        0.30
  HS02004799           JUNCTION     0.13     0.33     9.54     0  03:01        0.33
  HS02004792           JUNCTION     0.04     0.14     9.66     0  03:01        0.14
  HS02004788           JUNCTION     0.03     0.10    10.00     0  03:01        0.10
  HS02004785           JUNCTION     0.05     0.17    10.07     0  03:01        0.17
  HS02004777           JUNCTION     0.16     0.30    10.10     0  03:01        0.30
  HS02004770           JUNCTION     0.13     0.27    10.10     0  03:01        0.27
  HS02004480           JUNCTION     0.09     0.26     9.50     0  03:01        0.26
  HS02004479           JUNCTION     0.13     0.30     9.50     0  03:01        0.30
  HS02004478           JUNCTION     0.07     0.18     9.41     0  03:01        0.18
  YS02001745           JUNCTION     0.69     0.88     8.40     0  03:32        0.88
  YS02001748           JUNCTION     1.07     1.86     8.94     0  02:45        1.33
  YS02001751           JUNCTION     1.25     1.71     8.59     0  02:44        1.54
  YS02001754           JUNCTION     1.51     1.84     8.44     0  02:44        1.82
  YS02001762           JUNCTION     1.71     2.03     8.43     0  03:18        2.03
  YS02001765           JUNCTION     1.66     1.98     8.43     0  03:31        1.97
  YS02001767           JUNCTION     1.63     1.93     8.42     0  03:31        1.92
  YS02001770           JUNCTION     1.62     1.91     8.41     0  03:44        1.90
  YS02001774           JUNCTION     1.69     1.98     8.40     0  03:34        1.97
  YS02001779           JUNCTION     1.44     1.68     8.37     0  02:41        1.68
  YS02001882           JUNCTION     0.54     1.63     8.35     0  02:52        1.60
  YS02001884           JUNCTION     0.63     1.73     8.35     0  02:52        1.70
  YS02001759           JUNCTION     1.74     2.07     8.44     0  03:33        2.06
  YS02001887           JUNCTION     0.71     1.80     8.34     0  02:52        1.78
  YS02001890           JUNCTION     0.74     1.81     8.32     0  02:52        1.80
  YS02001898           JUNCTION     0.51     1.56     8.30     0  02:52        1.54
  YS02001901           JUNCTION     0.63     1.67     8.28     0  03:00        1.66
  YS02001904           JUNCTION     0.60     1.64     8.27     0  02:52        1.63
  YS02001907           JUNCTION     0.93     1.96     8.25     0  02:52        1.96
  YS02001910           JUNCTION     0.72     1.78     8.29     0  02:54        1.76
  YS02001915           JUNCTION     0.52     1.60     8.31     0  02:54        1.59
  YS02001918           JUNCTION     0.27     1.27     8.33     0  02:54        1.26
  YS02001619           JUNCTION     1.22     1.61     8.54     0  02:33        1.61
  YS02001629           JUNCTION     1.58     1.85     8.40     0  02:40        1.85
  YS02001641           JUNCTION     1.68     1.99     8.42     0  02:42        1.93
  YS02001644           JUNCTION     1.68     1.92     8.35     0  02:42        1.92
  YS02001652           JUNCTION     1.52     2.16     8.76     0  02:53        1.94
  YS02001655           JUNCTION     1.28     2.20     9.05     0  02:57        1.79
  YS02001920           JUNCTION     0.37     1.34     8.35     0  02:54        1.34
  YS02001923           JUNCTION     0.21     1.10     8.36     0  02:54        1.10
  YS02001926           JUNCTION     0.26     0.92     8.36     0  02:53        0.91
  YS02001929           JUNCTION     0.15     0.70     8.39     0  02:54        0.65
  YS02001658           JUNCTION     1.02     2.30     9.44     0  02:55        1.61
  YS02001661           JUNCTION     0.80     2.46     9.86     0  02:55        1.54
  YS02001664           JUNCTION     0.35     0.57     8.49     0  03:56        0.56
  YS02001622           JUNCTION     1.24     1.62     8.52     0  02:40        1.59
  YS02001633           JUNCTION     1.67     2.00     8.45     0  02:42        1.94
  YS02001649           JUNCTION     1.72     2.05     8.44     0  02:53        2.05
  YS02001757           JUNCTION     1.84     2.17     8.44     0  03:30        2.16
  YS02001895           JUNCTION     0.50     1.57     8.31     0  02:52        1.55
  YS02001625           JUNCTION     1.53     1.78     8.38     0  02:40        1.78
  YS02163301           JUNCTION     1.61     1.91     8.43     0  02:42        1.88
  YS02163601           JUNCTION     1.72     2.05     8.45     0  02:42        1.98
  YS02164001           JUNCTION     1.66     2.00     8.45     0  02:42        1.91
  YS02001647           JUNCTION     1.51     1.80     8.41     0  02:43        1.79
  YSB1154              JUNCTION     0.27     0.45     9.51     0  03:01        0.45
  YSB6556              JUNCTION     0.16     0.34     9.51     0  03:01        0.34
  YSB1174              JUNCTION     0.22     0.40     9.51     0  03:01        0.40
  YSB1171              JUNCTION     0.42     0.60     9.51     0  03:01        0.60
  YS02006553           JUNCTION     0.93     1.97     8.25     0  02:58        1.95
  YS02006561           JUNCTION     0.31     1.10     7.76     0  02:52        1.07
  YS02006556           JUNCTION     0.90     1.92     8.23     0  02:52        1.92
  YS02006558           JUNCTION     0.94     1.96     8.23     0  02:52        1.95
  YS02001783           JUNCTION     0.54     2.40     8.54     0  02:41        1.47
  YS02001784           JUNCTION     0.56     1.92     7.98     0  02:41        1.41
  YS02001786           JUNCTION     0.51     2.23     8.26     0  02:41        1.25
  YS02001788           JUNCTION     0.44     2.28     8.26     0  02:41        1.12
  YS02001790           JUNCTION     0.57     1.96     7.60     0  02:40        1.29
  YS02001791           JUNCTION     0.56     1.88     7.35     0  02:40        1.27
  YS02001793           JUNCTION     0.83     2.07     6.90     0  02:41        1.80
  WS02004139           JUNCTION     0.60     0.72     5.63     0  03:21        0.72
  WSC                  OUTFALL      0.31     0.40     1.07     0  03:07        0.40
  3                    OUTFALL      0.10     0.22     6.22     0  03:00        0.22
  4                    OUTFALL      0.02     0.16     7.16     0  03:00        0.16
  5                    OUTFALL      0.00     0.00     5.00     0  00:00        0.00
  JK-storage           STORAGE      3.08     5.80     6.60     0  02:41        5.80
  CC-storage           STORAGE      1.06     1.39     8.39     0  03:32        1.39
  XR-storage           STORAGE      6.80     7.72     5.72     0  02:47        7.72
  
  
  *******************
  Node Inflow Summary
  *******************
  
  -------------------------------------------------------------------------------------------------
                                  Maximum  Maximum                  Lateral       Total        Flow
                                  Lateral    Total  Time of Max      Inflow      Inflow     Balance
                                   Inflow   Inflow   Occurrence      Volume      Volume       Error
  Node                 Type           LPS      LPS  days hr:min    10^6 ltr    10^6 ltr     Percent
  -------------------------------------------------------------------------------------------------
  WS02001211           JUNCTION      7.35   382.60     0  03:40       0.207        6.99       0.418
  WS02001212           JUNCTION      0.00   379.72     0  03:41           0        6.96       0.229
  WS02001213           JUNCTION      0.00   379.36     0  03:41           0        6.95       0.298
  WS02003069           JUNCTION      0.32   951.49     0  03:05     0.00902        15.6       0.162
  WS02003072           JUNCTION      0.00   951.32     0  03:06           0        15.6       0.206
  WS02003073           JUNCTION      1.82   953.04     0  03:06      0.0514        15.6       0.227
  WS02003060           JUNCTION     16.53   951.11     0  03:04       0.466        15.6       0.154
  WS02003066           JUNCTION      0.00   675.22     0  03:06           0        8.26       0.049
  WS02003059           JUNCTION      0.00   380.29     0  03:42           0        6.93       0.480
  WS02003067           JUNCTION      0.00   675.06     0  03:05           0        8.27       0.105
  WS02004401           JUNCTION      0.00   678.79     0  03:03           0        8.48       0.230
  WS02004402           JUNCTION      0.00   677.87     0  03:03           0        8.46       0.219
  WS02004403           JUNCTION      0.00   677.88     0  03:04           0        8.44       0.201
  WS02004404           JUNCTION      0.16   677.86     0  03:04     0.00457        8.43       0.154
  WS02004406           JUNCTION      0.00   677.84     0  03:03           0         8.4       0.375
  WS02004409           JUNCTION      0.00   677.62     0  03:04           0        8.36       0.171
  WS02004410           JUNCTION      0.00   676.51     0  03:04           0        8.35       0.196
  WS02004411           JUNCTION      0.00   675.80     0  03:05           0        8.33       0.204
  WS02004412           JUNCTION      0.00   675.32     0  03:05           0        8.31       0.224
  WS02004413           JUNCTION      0.00   675.15     0  03:05           0        8.29       0.337
  WS02004405           JUNCTION      0.04   677.81     0  03:04     0.00107        8.42       0.230
  WS02006109           JUNCTION      1.23   670.37     0  03:01      0.0347        8.53       0.227
  WS02006110           JUNCTION      0.00   670.34     0  03:01           0        8.51       0.208
  WS02006111           JUNCTION      0.00   703.34     0  03:02           0        8.48       0.043
  WS02006112           JUNCTION     14.47   682.62     0  03:02      0.0629        8.54       0.320
  WS02006113           JUNCTION      0.00   671.41     0  03:02           0        8.49       0.095
  WS02006115           JUNCTION      0.00   682.94     0  03:02           0        8.51       0.205
  WS02006116           JUNCTION      0.00   678.04     0  03:02           0         8.5       0.199
  WS02006230           JUNCTION     10.28   401.38     0  05:52        0.29        6.64       0.157
  WS02006231           JUNCTION      0.00   391.76     0  05:52           0        6.36       0.185
  WS02006232           JUNCTION      0.00   391.83     0  05:51           0        6.38       0.227
  WS02006234           JUNCTION      0.00   392.89     0  05:51           0        6.38       0.094
  WS02006235           JUNCTION      0.00   392.95     0  05:51           0        6.43       0.150
  WS02006238           JUNCTION      0.00   310.54     0  06:42           0        4.37       0.143
  WS02006240           JUNCTION      0.00   326.74     0  02:01           0        4.36       0.229
  WS02006242           JUNCTION      0.00   341.95     0  02:01           0        4.36       0.300
  WS02006243           JUNCTION      0.00   354.91     0  02:01           0        4.34      -0.134
  WS02006245           JUNCTION      0.00   363.31     0  02:01           0        4.36       0.316
  WS02006247           JUNCTION      0.00   370.05     0  02:00           0        4.36       0.158
  WS02006248           JUNCTION      0.00   375.59     0  02:00           0        4.36       0.053
  WS02006249           JUNCTION      0.00   470.66     0  03:00           0        4.81       0.253
  WS02006239           JUNCTION      0.00   311.57     0  06:41           0        4.36       0.218
  WS02006251           JUNCTION      0.08   471.35     0  03:00     0.00217        4.85       0.182
  WS02006252           JUNCTION      0.00   400.00     0  02:00           0        4.46       0.010
  WS02006253           JUNCTION      1.91    81.00     0  03:01     0.00814       0.395       1.018
  WS02006256           JUNCTION      0.00   600.00     0  02:50           0        6.33       0.041
  WS02004138           JUNCTION      0.00   379.99     0  03:40           0        6.81       0.067
  WS02004407           JUNCTION      0.00   678.17     0  03:04           0        8.37       0.077
  WS02006228           JUNCTION      0.00   669.25     0  03:01           0        8.51       0.154
  WS02006229           JUNCTION      0.00   667.34     0  03:01           0        8.52       0.134
  WS02006280           JUNCTION      0.00   375.54     0  03:02           0        1.89       0.004
  WS02006284           JUNCTION      0.10   375.54     0  03:02      0.0027        1.89       0.064
  WS02006287           JUNCTION      0.00   375.26     0  03:01           0        1.89       0.037
  WSF200               JUNCTION      0.00   675.30     0  03:06           0        8.25       0.045
  HS02004901           JUNCTION     17.47    17.47     0  03:01      0.0757      0.0759       2.381
  HS02004881           JUNCTION      7.55    79.19     0  03:01      0.0331       0.357       0.053
  HS02004876           JUNCTION     14.15    72.10     0  03:01      0.0636       0.324       0.171
  HS02004870           JUNCTION     14.17    58.27     0  03:01      0.0626       0.261       0.043
  HS02004862           JUNCTION     13.95    44.46     0  03:01      0.0685       0.198       0.088
  HS02004856           JUNCTION     10.64    30.79     0  03:01      0.0471       0.131       1.116
  HS02004852           JUNCTION      0.00    20.44     0  03:01           0       0.084       0.069
  HS02004848           JUNCTION     32.07    32.07     0  03:01       0.151       0.151       0.033
  HS02004842           JUNCTION      0.00    11.42     0  03:01           0      0.0801      19.389
  HS02004837           JUNCTION     30.75    41.91     0  03:01       0.288       0.355       0.230
  HS02004830           JUNCTION      0.15    41.84     0  03:01     0.00423       0.346       0.359
  HS02004824           JUNCTION     40.25    81.79     0  03:01       0.197       0.542       0.100
  HS02004817           JUNCTION      0.60    82.18     0  03:01      0.0169       0.558       3.079
  HS02004807           JUNCTION     26.15   107.24     0  03:01       0.115       0.657       0.656
  HS02004802           JUNCTION      0.00   106.49     0  03:01           0       0.653       0.617
  HS02004799           JUNCTION     21.02   227.51     0  03:01      0.0932        1.06       0.236
  HS02004792           JUNCTION     88.55   207.32     0  03:01       0.396       0.966       0.043
  HS02004788           JUNCTION     30.78   119.37     0  03:01       0.177       0.571       0.069
  HS02004785           JUNCTION      0.15    89.79     0  03:01     0.00423       0.396       0.125
  HS02004777           JUNCTION      0.03    90.24     0  03:01    0.000846       0.397       1.326
  HS02004770           JUNCTION     73.89    90.93     0  03:01       0.324       0.398       0.787
  HS02004480           JUNCTION      0.00   269.27     0  03:01           0        1.25       0.098
  HS02004479           JUNCTION      0.00    42.82     0  03:02           0       0.204       0.360
  HS02004478           JUNCTION      0.00   375.17     0  03:01           0        1.89       0.018
  YS02001745           JUNCTION    297.18   297.18     0  03:01        2.34        2.34       0.478
  YS02001748           JUNCTION      0.04   429.69     0  02:44     0.00127        2.33       0.996
  YS02001751           JUNCTION      0.01   313.32     0  02:33     0.00031         2.3       1.032
  YS02001754           JUNCTION      0.26   309.22     0  03:01     0.00733        2.29       1.081
  YS02001762           JUNCTION      0.00   333.20     0  02:54           0        1.84       1.153
  YS02001765           JUNCTION      0.00   333.27     0  02:54           0        1.84       1.344
  YS02001767           JUNCTION      0.54   333.30     0  02:54      0.0151        1.87       1.965
  YS02001770           JUNCTION    373.02   373.02     0  03:01        2.63        2.84       1.131
  YS02001774           JUNCTION      0.00   356.18     0  03:36           0        1.17       2.208
  YS02001779           JUNCTION      0.01   356.49     0  03:36    0.000141        1.14       1.357
  YS02001882           JUNCTION      0.00    35.18     0  02:46           0      0.0169      15.166
  YS02001884           JUNCTION      0.00    59.69     0  02:43           0      0.0529      12.919
  YS02001759           JUNCTION    359.84   655.84     0  02:54        2.43        4.03       0.569
  YS02001887           JUNCTION    453.35   453.49     0  03:01         2.8        2.83       0.298
  YS02001890           JUNCTION      0.00   453.54     0  03:01           0        2.79       0.330
  YS02001898           JUNCTION      0.00   453.55     0  03:01           0        2.77       0.116
  YS02001901           JUNCTION      0.00   453.64     0  03:01           0        2.77       0.249
  YS02001904           JUNCTION      0.00   453.61     0  03:01           0        2.77       0.227
  YS02001907           JUNCTION      0.00   877.54     0  02:59           0        6.12       0.395
  YS02001910           JUNCTION      0.00   456.50     0  02:54           0        3.37       0.346
  YS02001915           JUNCTION    263.65   456.35     0  02:54        1.96        3.39       0.180
  YS02001918           JUNCTION      0.00   220.16     0  02:54           0        1.44       0.120
  YS02001619           JUNCTION    257.27   257.27     0  03:01        1.95        1.95       0.626
  YS02001629           JUNCTION      0.00   205.47     0  02:49           0        1.63       1.787
  YS02001641           JUNCTION      0.00   435.56     0  02:49           0        3.84       0.547
  YS02001644           JUNCTION    282.70  1044.74     0  03:22        2.25        7.98       0.329
  YS02001652           JUNCTION      0.00   375.92     0  03:01           0        2.04       1.152
  YS02001655           JUNCTION      0.15   375.68     0  03:01     0.00434        2.06       1.242
  YS02001920           JUNCTION      2.87   220.30     0  02:54      0.0809        1.43       0.204
  YS02001923           JUNCTION      0.04   226.58     0  02:54     0.00106        1.34       0.047
  YS02001926           JUNCTION      0.05   200.69     0  02:55     0.00147        1.34       0.249
  YS02001929           JUNCTION    129.40   129.40     0  03:01        1.34        1.34       0.041
  YS02001658           JUNCTION      0.00   527.55     0  02:40           0        2.08       1.110
  YS02001661           JUNCTION      0.00   682.93     0  02:54           0        2.73      -0.038
  YS02001664           JUNCTION    327.80   355.79     0  02:53        2.09        2.73       0.241
  YS02001622           JUNCTION      0.00   257.51     0  03:01           0        1.94       1.662
  YS02001633           JUNCTION    287.40   435.60     0  02:49        2.32         3.9       0.827
  YS02001649           JUNCTION      0.00   922.43     0  02:50           0        5.19       0.715
  YS02001757           JUNCTION      0.00  1767.39     0  02:50           0        9.34       0.996
  YS02001895           JUNCTION      0.00   453.56     0  03:01           0        2.78       0.177
  YS02001625           JUNCTION      0.00   257.28     0  03:01           0         1.9       2.045
  YS02163301           JUNCTION      0.00   210.14     0  02:40           0        1.61       1.499
  YS02163601           JUNCTION      0.11   435.67     0  02:49      0.0031        3.87       0.782
  YS02164001           JUNCTION      0.00   435.72     0  02:49           0        3.85       0.520
  YS02001647           JUNCTION      0.00   662.90     0  02:49           0         4.1       0.694
  YSB1154              JUNCTION     25.19    25.19     0  03:01       0.113       0.114       1.286
  YSB6556              JUNCTION      0.00    24.91     0  03:01           0       0.115       1.100
  YSB1174              JUNCTION     19.06    19.06     0  03:01      0.0821      0.0827       1.581
  YSB1171              JUNCTION      0.00    43.19     0  03:01           0       0.203       3.219
  YS02006553           JUNCTION      0.00   668.41     0  03:16           0         5.9       0.259
  YS02006561           JUNCTION      0.00   964.20     0  03:00           0        8.42       0.008
  YS02006556           JUNCTION      0.00   667.08     0  03:16           0         5.9       0.191
  YS02006558           JUNCTION    392.87   964.34     0  03:00        2.57        8.45       0.063
  YS02001783           JUNCTION      0.00   964.16     0  03:00           0        8.42       0.026
  YS02001784           JUNCTION      1.06   965.25     0  03:00      0.0299        8.45       0.044
  YS02001786           JUNCTION      0.06   965.24     0  03:01     0.00159        8.44       0.040
  YS02001788           JUNCTION      0.07   965.40     0  03:01       0.002        8.44       0.023
  YS02001790           JUNCTION      0.15   965.50     0  03:00     0.00437        8.45       0.024
  YS02001791           JUNCTION      0.00   965.48     0  03:00           0        8.44       0.014
  YS02001793           JUNCTION      0.00   965.59     0  03:00           0        8.44      -0.007
  WS02004139           JUNCTION      0.32   379.81     0  00:20     0.00905        6.82       0.481
  WSC                  OUTFALL       0.00   953.03     0  03:07           0        15.6       0.000
  3                    OUTFALL       0.00   542.78     0  03:00           0        4.25       0.000
  4                    OUTFALL       0.00   239.84     0  03:00           0       0.437       0.000
  5                    OUTFALL       0.00     0.00     0  00:00           0           0       0.000 ltr
  JK-storage           STORAGE       0.00   982.16     0  02:39           0        8.59      -5.366
  CC-storage           STORAGE       0.00  1767.24     0  02:50           0        8.22      -0.195
  XR-storage           STORAGE     690.11   690.11     0  03:01        9.61        10.2      -0.003
  
  
  **********************
  Node Surcharge Summary
  **********************
  
  Surcharging occurs when water rises above the top of the highest conduit.
  ---------------------------------------------------------------------
                                               Max. Height   Min. Depth
                                   Hours       Above Crown    Below Rim
  Node                 Type      Surcharged         Meters       Meters
  ---------------------------------------------------------------------
  WS02004402           JUNCTION        0.05          0.006        1.734
  WS02004403           JUNCTION        0.06          0.008        2.022
  WS02004404           JUNCTION        0.47          0.069        2.711
  WS02004406           JUNCTION        0.30          0.039        2.411
  WS02004405           JUNCTION        0.44          0.055        2.745
  WS02006109           JUNCTION        2.30          0.297        1.523
  WS02006110           JUNCTION        0.94          0.111        1.739
  WS02006112           JUNCTION        1.19          0.213        1.467
  WS02006230           JUNCTION        0.40          0.114        1.456
  WS02006231           JUNCTION        0.71          0.143        1.387
  WS02006232           JUNCTION        2.26          0.278        1.202
  WS02006234           JUNCTION        0.80          0.171        1.069
  WS02006235           JUNCTION        1.21          0.215        1.075
  WS02006238           JUNCTION        1.69          0.231        1.199
  WS02006240           JUNCTION        0.61          0.127        1.263
  WS02006242           JUNCTION        1.09          0.160        0.660
  WS02006243           JUNCTION        0.29          0.059        0.711
  WS02006245           JUNCTION        0.05          0.022        0.828
  WS02006247           JUNCTION        0.06          0.023        0.737
  WS02006239           JUNCTION        0.81          0.157        1.133
  WS02006252           JUNCTION        2.17          0.193        0.907
  WS02006228           JUNCTION        2.11          0.359        1.841
  YS02001748           JUNCTION        5.05          0.784        0.406
  YS02001751           JUNCTION        5.24          0.712        0.488
  YS02001754           JUNCTION        5.40          0.785        0.365
  YS02001762           JUNCTION        5.63          1.031        0.119
  YS02001765           JUNCTION        5.60          0.978        0.122
  YS02001767           JUNCTION        5.56          0.934        0.096
  YS02001770           JUNCTION        5.45          0.882        0.038
  YS02001774           JUNCTION        5.63          0.976        0.074
  YS02001779           JUNCTION        5.39          0.680        0.000
  YS02001882           JUNCTION        0.78          0.634        0.196
  YS02001884           JUNCTION        0.81          0.669        0.201
  YS02001759           JUNCTION        5.66          1.071        0.139
  YS02001887           JUNCTION        0.90          0.750        0.200
  YS02001890           JUNCTION        0.93          0.760        0.000
  YS02001898           JUNCTION        0.74          0.534        0.206
  YS02001901           JUNCTION        0.87          0.672        0.198
  YS02001904           JUNCTION        0.85          0.641        0.209
  YS02001907           JUNCTION        1.48          0.950        0.000
  YS02001910           JUNCTION        0.98          0.782        0.318
  YS02001915           JUNCTION        0.77          0.595        0.405
  YS02001918           JUNCTION        0.52          0.266        0.544
  YS02001619           JUNCTION        5.24          0.610        0.000
  YS02001629           JUNCTION        5.25          0.470        0.000
  YS02001641           JUNCTION        5.62          0.986        0.114
  YS02001644           JUNCTION        5.62          0.920        0.000
  YS02001652           JUNCTION        5.42          1.130        0.000
  YS02001655           JUNCTION        5.27          1.200        0.000
  YS02001920           JUNCTION        0.56          0.343        0.797
  YS02001658           JUNCTION        5.09          1.300        0.000
  YS02001661           JUNCTION        0.20          1.390        0.000
  YS02001622           JUNCTION        5.26          0.620        0.000
  YS02001633           JUNCTION        5.60          0.981        0.079
  YS02001649           JUNCTION        5.64          1.050        0.000
  YS02001757           JUNCTION        5.74          1.174        0.036
  YS02001895           JUNCTION        0.75          0.566        0.184
  YS02001625           JUNCTION        5.42          0.780        0.000
  YS02163301           JUNCTION        5.54          0.914        0.116
  YS02163601           JUNCTION        5.64          1.055        0.025
  YS02164001           JUNCTION        5.60          0.995        0.105
  YS02001647           JUNCTION        5.43          0.804        0.096
  YS02006553           JUNCTION        1.55          0.965        0.225
  YS02006561           JUNCTION        0.65          0.303        0.847
  YS02006556           JUNCTION        1.20          0.883        0.467
  YS02006558           JUNCTION        1.16          0.861        0.539
  YS02001783           JUNCTION        1.22          1.600        0.000
  YS02001784           JUNCTION        1.27          1.116        0.374
  YS02001786           JUNCTION        1.22          1.430        0.000
  YS02001788           JUNCTION        1.20          1.480        0.000
  YS02001790           JUNCTION        2.20          1.157        0.000
  YS02001791           JUNCTION        2.33          1.078        0.842
  YS02001793           JUNCTION        2.60          1.069        1.531
  
  
  *********************
  Node Flooding Summary
  *********************
  
  Flooding refers to all water that overflows a node, whether it ponds or not.
  --------------------------------------------------------------------------
                                                             Total   Maximum
                                 Maximum   Time of Max       Flood    Ponded
                        Hours       Rate    Occurrence      Volume     Depth
  Node                 Flooded       LPS   days hr:min    10^6 ltr    Meters
  --------------------------------------------------------------------------
  YS02001779              2.31    356.34      0  03:36       1.115     0.000
  YS02001890              0.01      3.84      0  02:52       0.000     0.000
  YS02001907              0.38    297.34      0  02:59       0.208     0.000
  YS02001619              0.01     28.58      0  02:33       0.000     0.000
  YS02001629              0.01     31.91      0  02:42       0.000     0.000
  YS02001644              4.15   1044.46      0  03:22       5.758     0.000
  YS02001652              0.01     27.46      0  02:57       0.000     0.000
  YS02001655              0.01     22.98      0  02:57       0.000     0.000
  YS02001658              0.01     13.50      0  03:03       0.000     0.000
  YS02001661              0.01    222.80      0  02:57       0.001     0.000
  YS02001622              0.01     15.71      0  02:40       0.000     0.000
  YS02001649              0.08     60.69      0  02:57       0.005     0.000
  YS02001625              0.88    168.97      0  03:01       0.237     0.000
  YS02001783              0.01    246.46      0  02:41       0.000     0.000
  YS02001786              0.01     61.90      0  02:41       0.000     0.000
  YS02001788              0.01     66.42      0  02:41       0.000     0.000
  YS02001790              0.01    205.46      0  02:40       0.000     0.000
  JK-storage              1.99    662.32      0  03:10       2.690     0.000
  XR-storage              4.28    457.26      0  04:00       2.475     0.000
  
  
  **********************
  Storage Volume Summary
  **********************
  
  --------------------------------------------------------------------------------------------------
                         Average     Avg  Evap Exfil       Maximum     Max    Time of Max    Maximum
                          Volume    Pcnt  Pcnt  Pcnt        Volume    Pcnt     Occurrence    Outflow
  Storage Unit           1000 m3    Full  Loss  Loss       1000 m3    Full    days hr:min        LPS
  --------------------------------------------------------------------------------------------------
  JK-storage               0.155      53     0     0         0.291     100       0  02:41     600.00
  CC-storage               2.957      19     0     0         3.873      25       0  03:32     400.00
  XR-storage               0.816      88     0     0         0.926     100       0  02:47     379.99
  
  
  ***********************
  Outfall Loading Summary
  ***********************
  
  -----------------------------------------------------------
                         Flow       Avg       Max       Total
                         Freq      Flow      Flow      Volume
  Outfall Node           Pcnt       LPS       LPS    10^6 ltr
  -----------------------------------------------------------
  WSC                   99.99    616.46    953.03      15.552
  3                     86.81    229.41    542.78       4.247
  4                     36.76     57.00    239.84       0.437
  5                      0.00      0.00      0.00       0.000
  -----------------------------------------------------------
  System                55.89    902.86   1644.98      20.236
  
  
  ********************
  Link Flow Summary
  ********************
  
  -----------------------------------------------------------------------------
                                 Maximum  Time of Max   Maximum    Max/    Max/
                                  |Flow|   Occurrence   |Veloc|    Full    Full
  Link                 Type          LPS  days hr:min     m/sec    Flow   Depth
  -----------------------------------------------------------------------------
  WS02003066WSF200     CONDUIT    675.30     0  03:06      2.84    0.11    0.26
  WS02006287WS02006284 CONDUIT    375.44     0  03:02      1.98    0.17    0.29
  WS02006284WS02006280 CONDUIT    375.54     0  03:02      2.22    0.16    0.27
  WS02006280WS02006229 CONDUIT    375.57     0  03:02      3.58    0.08    0.19
  WS02006229WS02006228 CONDUIT    669.25     0  03:01      1.33    2.22    1.00
  WS02006256WS02006235 CONDUIT    166.25     0  00:01      2.58    1.76    1.00
  WS02006253WS02006251 CONDUIT     94.38     0  03:01      0.55    0.28    1.00
  WS02006252WS02006251 CONDUIT    400.32     0  05:58      3.19    1.47    1.00
  WS02006251WS02006249 CONDUIT    470.66     0  03:00      1.25    1.36    0.97
  WS02006249WS02006248 CONDUIT    375.59     0  02:00      1.22    2.06    0.93
  WS02006248WS02006247 CONDUIT    370.05     0  02:00      1.19    0.81    0.97
  WS02006247WS02006245 CONDUIT    363.31     0  02:01      1.15    2.88    1.00
  WS02006245WS02006243 CONDUIT    354.91     0  02:01      1.20    1.05    1.00
  WS02006243WS02006242 CONDUIT    341.95     0  02:01      1.03    0.73    1.00
  WS02006242WS02006240 CONDUIT    326.74     0  02:01      0.92    1.30    1.00
  WS02006240WS02006239 CONDUIT    311.57     0  06:41      0.89    0.98    1.00
  WS02006239WS02006238 CONDUIT    310.54     0  06:42      0.84    0.99    1.00
  WS02006238WS02006235 CONDUIT    310.58     0  06:42      1.25    0.69    1.00
  WS02006235WS02006234 CONDUIT    392.89     0  05:51      1.04    4.15    1.00
  WS02006234WS02006232 CONDUIT    391.83     0  05:51      1.13    0.79    1.00
  WS02006232WS02006231 CONDUIT    391.76     0  05:52      1.06    0.82    1.00
  WS02006231WS02006230 CONDUIT    391.10     0  05:52      1.35    5.93    1.00
  WS02006230WS02006229 CONDUIT    401.12     0  05:53      1.04    8.93    1.00
  WS02006228WS02006109 CONDUIT    669.14     0  03:01      1.33    2.92    1.00
  WS02006116WS02004401 CONDUIT    678.79     0  03:03      0.87    0.94    0.99
  WS02006115WS02006116 CONDUIT    678.04     0  03:02      0.91    0.87    0.92
  WS02006113WS02006111 CONDUIT    703.34     0  03:02      2.60    0.84    0.56
  WS02006112WS02006115 CONDUIT    682.94     0  03:02      0.89    0.40    0.95
  WS02006111WS02006112 CONDUIT    670.79     0  03:02      1.71    0.32    0.73
  WS02006110WS02006113 CONDUIT    671.41     0  03:02      1.53    0.61    0.82
  WS02006109WS02006110 CONDUIT    670.34     0  03:01      1.33    1.29    1.00
  WS02004411WS02004412 CONDUIT    675.32     0  03:05      1.04    0.96    0.77
  WS02004401WS02004402 CONDUIT    677.87     0  03:03      0.86    0.81    1.00
  WS02004413WS02003067 CONDUIT    675.06     0  03:05      1.26    0.29    0.64
  WS02004412WS02004413 CONDUIT    675.15     0  03:05      0.95    0.45    0.84
  WS02004410WS02004411 CONDUIT    675.80     0  03:05      1.04    0.92    0.77
  WS02004409WS02004410 CONDUIT    676.51     0  03:04      1.05    0.87    0.77
  WS02004407WS02004409 CONDUIT    677.62     0  03:04      1.54    0.24    0.55
  WS02004406WS02004407 CONDUIT    678.17     0  03:04      1.22    0.30    0.67
  WS02004405WS02004406 CONDUIT    677.84     0  03:03      0.86    1.34    1.00
  WS02004404WS02004405 CONDUIT    677.77     0  03:04      0.86    6.64    1.00
  WS02004403WS02004404 CONDUIT    677.70     0  03:04      0.86    0.49    1.00
  WS02004402WS02004403 CONDUIT    677.88     0  03:04      0.86    0.97    1.00
  WS02004139WS02001211 CONDUIT    375.25     0  03:40      0.81    0.47    0.58
  WS02004138WS02004139 CONDUIT    379.49     0  00:20      3.33    0.08    0.43
  WS02003067WS02003066 CONDUIT    675.22     0  03:06      1.37    0.22    0.45
  WS02001213WS02003059 CONDUIT    380.29     0  03:42      0.80    0.63    0.75
  WS02001212WS02001213 CONDUIT    379.36     0  03:41      1.31    0.59    0.45
  WS02001211WS02001212 CONDUIT    379.72     0  03:41      0.77    0.29    0.63
  WS02003072WS02003073 CONDUIT    951.22     0  03:06      1.73    2.05    0.49
  WS02003069WS02003072 CONDUIT    951.32     0  03:06      1.63    0.46    0.51
  WS02003060WS02003069 CONDUIT    951.17     0  03:05      1.87    0.37    0.46
  WS02003059WS02003060 CONDUIT    382.03     0  03:42      0.93    0.25    0.65
  HS02004901HS02004770 CONDUIT     17.71     0  03:01      0.07    0.07    0.39
  HS02004876HS02004881 CONDUIT     71.90     0  03:01      0.92    0.76    0.11
  HS02004870HS02004876 CONDUIT     58.03     0  03:01      0.63    0.04    0.13
  HS02004842HS02004848 CONDUIT     11.42     0  03:01      0.05    0.01    0.30
  HS02004837HS02004842 CONDUIT     11.94     0  03:02      0.41    0.01    0.32
  HS02004830HS02004837 CONDUIT     41.69     0  03:01      0.56    0.04    0.11
  HS02004824HS02004830 CONDUIT     41.67     0  03:01      0.58    0.05    0.10
  HS02004817HS02004824 CONDUIT     81.58     0  03:01      0.25    0.04    0.47
  HS02004770HS02004777 CONDUIT     90.21     0  03:01      0.32    0.16    0.41
  HS02004799HS02004480 CONDUIT    226.97     0  03:01      0.78    0.29    0.42
  HS02004792HS02004799 CONDUIT    206.60     0  03:01      0.88    0.13    0.33
  HS02004788HS02004792 CONDUIT    118.94     0  03:01      1.01    0.08    0.17
  HS02004785HS02004788 CONDUIT     89.52     0  03:02      0.66    0.67    0.19
  HS02004777HS02004785 CONDUIT     89.64     0  03:01      0.38    0.11    0.33
  HS02004480HS02004478 CONDUIT    269.12     0  03:01      1.20    1.13    0.32
  HS02004479HS02004480 CONDUIT     44.17     0  03:02      0.23    0.04    0.40
  HS02004862HS02004870 CONDUIT     44.23     0  03:01      0.64    0.05    0.10
  HS02004848HS02004852 CONDUIT     20.44     0  03:01      0.44    0.02    0.07
  HS02004856HS02004862 CONDUIT     30.56     0  03:01      0.47    0.03    0.09
  HS02004852HS02004856 CONDUIT     20.26     0  03:01      0.24    0.02    0.12
  HS02004802HS02004478 CONDUIT    106.59     0  03:02      0.45    0.09    0.35
  HS02004478WS02006287 CONDUIT    375.26     0  03:01      1.68    0.11    0.25
  HS02004817HS02004807 CONDUIT     82.18     0  03:01      0.19    0.05    0.62
  HS02004807HS02004802 CONDUIT    106.49     0  03:01      0.38    0.20    0.40
  YS02001759YS02001757 CONDUIT    655.73     0  02:54      0.83    0.47    1.00
  YS02001762YS02001759 CONDUIT    333.09     0  02:54      0.42    0.38    1.00
  YS02001765YS02001762 CONDUIT    333.20     0  02:54      0.42    0.31    1.00
  YS02001770YS02001767 CONDUIT    332.76     0  02:54      0.42    1.32    1.00
  YS02001774YS02001770 CONDUIT    356.18     0  03:36      0.45    0.23    1.00
  YS02001779YS02001774 CONDUIT    356.48     0  03:36      0.45    0.18    1.00
  YS02001649YS02001757 CONDUIT    922.43     0  02:50      1.17    0.56    1.00
  YS02001767YS02001765 CONDUIT    333.27     0  02:54      0.42    0.42    1.00
  YS02006561YS02001783 CONDUIT    964.16     0  03:00      2.14    0.50    1.00
  YS02001783YS02001784 CONDUIT    964.19     0  03:00      1.92    1.33    1.00
  YS02001784YS02001785 CONDUIT    965.18     0  03:01      1.92    2.25    1.00
  YS02001788YS02001790 CONDUIT    965.34     0  03:00      2.31    0.71    1.00
  YS02001790YS02001791 CONDUIT    965.48     0  03:00      2.87    1.05    1.00
  YS02001791YS02001793 CONDUIT    965.59     0  03:00      5.74    0.41    1.00
  YS02001910YS02001907 CONDUIT    456.34     0  02:54      0.58    0.26    1.00
  YS02001786YS02001788 CONDUIT    965.33     0  03:01      2.22    1.86    1.00
  YS02001915YS02001910 CONDUIT    456.50     0  02:54      0.58    0.23    1.00
  YS02001918YS02001915 CONDUIT    220.71     0  02:54      0.44    0.12    1.00
  YS02001923YS02001920 CONDUIT    217.43     0  02:54      0.68    0.10    1.00
  YS02001926YS02001923 CONDUIT    226.54     0  02:54      0.79    0.32    0.90
  YS02001929YS02001926 CONDUIT    200.63     0  02:55      0.84    0.10    0.80
  YS02001920YS02001918 CONDUIT    220.16     0  02:54      0.67    0.21    1.00
  YS02001629YS02163301 CONDUIT    210.14     0  02:40      0.27    0.26    1.00
  YS02001619YS02001622 CONDUIT    257.51     0  03:01      0.61    0.38    1.00
  YS02001622YS02001625 CONDUIT    257.28     0  03:01      0.33    0.14    1.00
  YS02001625YS02001629 CONDUIT    205.47     0  02:49      0.26    0.10    1.00
  YS02163301YS02001633 CONDUIT    211.27     0  02:40      0.27    0.20    1.00
  YS02163601YS02164001 CONDUIT    435.72     0  02:49      0.55    0.39    1.00
  YS02164001YS02001641 CONDUIT    435.56     0  02:49      0.55    0.59    1.00
  YS02001641YS02001644 CONDUIT    435.50     0  02:49      0.55    1.41    1.00
  YS02001647YS02001649 CONDUIT    662.98     0  02:49      0.84    0.35    1.00
  YS02006553YS02006556 CONDUIT    667.08     0  03:16      0.85    0.57    1.00
  YS02006556YS02006558 CONDUIT    667.33     0  03:16      0.85    0.53    1.00
  YSB6556YSB1171       CONDUIT     24.81     0  03:03      0.09    0.03    0.67
  YS02001907YS02006553 CONDUIT    668.41     0  03:16      0.74    0.79    1.00
  YS02006558YS02006561 CONDUIT    964.20     0  03:00      3.41    2.13    1.00
  YS02001633YS02163601 CONDUIT    435.56     0  02:49      0.55    0.46    1.00
  YS02001644YS02001647 CONDUIT    662.90     0  02:49      0.84    0.39    1.00
  YS02001745YS02001748 CONDUIT    429.65     0  02:44      1.48    0.17    0.94
  YS02001748YS02001751 CONDUIT    313.31     0  02:33      1.05    0.16    1.00
  YS02001751YS02001754 CONDUIT    308.96     0  03:01      0.88    0.15    1.00
  YS02001754YS02001757 CONDUIT    309.27     0  03:01      0.39    0.12    1.00
  YS02001882YS02001884 CONDUIT     35.18     0  02:46      0.09    0.04    1.00
  YS02001884YS02001887 CONDUIT     59.69     0  02:43      0.08    0.08    1.00
  YS02001890YS02001895 CONDUIT    453.56     0  03:01      0.58    0.21    1.00
  YS02001895YS02001898 CONDUIT    453.55     0  03:01      0.58    0.79    1.00
  YS02001898YS02001901 CONDUIT    453.64     0  03:01      0.58    0.29    1.00
  YS02001901YS02001904 CONDUIT    453.61     0  03:01      0.58    0.70    1.00
  YS02001904YS02001907 CONDUIT    453.63     0  03:01      0.58    0.16    1.00
  YS02001887YS02001890 CONDUIT    453.54     0  03:01      0.58    0.78    1.00
  YS02001652YS02001649 CONDUIT    376.23     0  03:01      0.50    0.19    1.00
  YS02001655YS02001652 CONDUIT    375.92     0  03:01      0.93    0.18    1.00
  YS02001658YS02001655 CONDUIT    375.53     0  03:01      1.21    0.16    1.00
  YS02001661YS02001658 CONDUIT    527.55     0  02:40      1.56    0.21    1.00
  YS02001664YS02001661 CONDUIT    682.93     0  02:54      1.57    0.21    0.72
  YSB1154YSB6556       CONDUIT     24.91     0  03:01      0.18    0.04    0.56
  YSB1174YSB1171       CONDUIT     18.78     0  03:01      0.07    0.03    0.68
  YSB1171HS02004479    CONDUIT     42.82     0  03:02      0.54    0.03    0.53
  HS02004881HS02006253 CONDUIT     79.15     0  03:01      1.96    0.02    0.32
  YS02001793JiankangQianchi CONDUIT    982.16     0  02:39     14.37    0.08    1.00
  YS02001757CaochengTiaoxuchi CONDUIT   1767.24     0  02:50      2.35    0.78    1.00
  WSF200WS02003060     CONDUIT    675.78     0  03:06      1.91    0.15    0.36
  1                    CONDUIT    953.03     0  03:07      3.28    0.33    0.40
  2                    CONDUIT    239.84     0  03:00      6.11    0.57    0.54
  3                    CONDUIT    542.78     0  03:00     10.06    0.86    0.72
  4                    CONDUIT      0.00     0  00:00      0.00    0.00    0.00
  CC-Pump-1            PUMP       200.00     0  02:00              1.00
  CC-Pump-2            PUMP       200.00     0  01:59              1.00
  JK-Pump-1            PUMP       300.00     0  00:00              1.00
  JK-Pump-2            PUMP       300.00     0  02:07              1.00
  XR-Pump-1            PUMP        95.00     0  00:00              1.00
  XR-Pump-2            PUMP        95.00     0  00:00              1.00
  XR-Pump-3            PUMP        95.00     0  00:00              1.00
  XR-Pump-4            PUMP        95.00     0  00:20              1.00
  
  
  ***************************
  Flow Classification Summary
  ***************************
  
  -------------------------------------------------------------------------------------
                      Adjusted    ---------- Fraction of Time in Flow Class ---------- 
                       /Actual         Up    Down  Sub   Sup   Up    Down  Norm  Inlet 
  Conduit               Length    Dry  Dry   Dry   Crit  Crit  Crit  Crit  Ltd   Ctrl  
  -------------------------------------------------------------------------------------
  WS02003066WSF200        1.00   0.04  0.01  0.00  0.00  0.94  0.00  0.00  0.62  0.00
  WS02006287WS02006284    1.00   0.04  0.01  0.00  0.58  0.38  0.00  0.00  0.65  0.00
  WS02006284WS02006280    1.00   0.04  0.00  0.00  0.00  0.00  0.00  0.96  0.00  0.00
  WS02006280WS02006229    1.00   0.04  0.00  0.00  0.00  0.00  0.00  0.96  0.00  0.00
  WS02006229WS02006228    1.00   0.00  0.00  0.00  0.99  0.00  0.00  0.01  0.00  0.00
  WS02006256WS02006235    1.00   0.00  0.00  0.00  1.00  0.00  0.00  0.00  0.00  0.00
  WS02006253WS02006251    1.00   0.03  0.01  0.00  0.96  0.00  0.00  0.00  0.00  0.00
  WS02006252WS02006251    1.00   0.07  0.00  0.00  0.00  0.00  0.93  0.00  0.00  0.00
  WS02006251WS02006249    1.00   0.00  0.00  0.00  1.00  0.00  0.00  0.00  0.26  0.00
  WS02006249WS02006248    1.00   0.00  0.02  0.00  0.89  0.00  0.09  0.00  0.00  0.00
  WS02006248WS02006247    1.00   0.02  0.00  0.00  0.98  0.00  0.00  0.00  0.14  0.00
  WS02006247WS02006245    1.00   0.02  0.00  0.00  0.98  0.00  0.00  0.00  0.00  0.00
  WS02006245WS02006243    1.00   0.01  0.00  0.00  0.95  0.00  0.00  0.04  0.01  0.00
  WS02006243WS02006242    1.00   0.01  0.00  0.00  0.99  0.00  0.00  0.00  0.20  0.00
  WS02006242WS02006240    1.00   0.00  0.00  0.00  1.00  0.00  0.00  0.00  0.00  0.00
  WS02006240WS02006239    1.00   0.00  0.00  0.00  0.97  0.00  0.00  0.03  0.01  0.00
  WS02006239WS02006238    1.00   0.00  0.00  0.00  1.00  0.00  0.00  0.00  0.00  0.00
  WS02006238WS02006235    1.00   0.00  0.00  0.00  1.00  0.00  0.00  0.00  0.00  0.00
  WS02006235WS02006234    1.00   0.00  0.00  0.00  0.97  0.00  0.03  0.00  0.00  0.00
  WS02006234WS02006232    1.00   0.00  0.00  0.00  1.00  0.00  0.00  0.00  0.00  0.00
  WS02006232WS02006231    1.00   0.00  0.00  0.00  0.99  0.00  0.00  0.00  0.00  0.00
  WS02006231WS02006230    1.00   0.00  0.00  0.00  0.71  0.00  0.29  0.00  0.00  0.00
  WS02006230WS02006229    1.00   0.00  0.00  0.00  0.99  0.00  0.00  0.01  0.01  0.00
  WS02006228WS02006109    1.00   0.00  0.00  0.00  1.00  0.00  0.00  0.00  0.00  0.00
  WS02006116WS02004401    1.00   0.02  0.00  0.00  0.98  0.00  0.00  0.00  0.00  0.00
  WS02006115WS02006116    1.00   0.02  0.00  0.00  0.97  0.00  0.00  0.01  0.00  0.00
  WS02006113WS02006111    1.00   0.02  0.00  0.00  0.00  0.98  0.00  0.00  0.11  0.00
  WS02006112WS02006115    1.00   0.02  0.00  0.00  0.98  0.00  0.00  0.00  0.00  0.00
  WS02006111WS02006112    1.00   0.02  0.00  0.00  0.98  0.00  0.00  0.00  0.93  0.00
  WS02006110WS02006113    1.00   0.01  0.01  0.00  0.98  0.00  0.00  0.00  0.00  0.00
  WS02006109WS02006110    1.00   0.00  0.01  0.00  0.98  0.00  0.01  0.00  0.00  0.00
  WS02004411WS02004412    1.00   0.04  0.00  0.00  0.96  0.00  0.00  0.00  0.00  0.00
  WS02004401WS02004402    1.00   0.02  0.00  0.00  0.98  0.00  0.00  0.00  0.00  0.00
  WS02004413WS02003067    1.00   0.04  0.01  0.00  0.00  0.00  0.95  0.00  0.00  0.00
  WS02004412WS02004413    1.00   0.04  0.00  0.00  0.96  0.00  0.00  0.00  0.03  0.00
  WS02004410WS02004411    1.00   0.04  0.00  0.00  0.96  0.00  0.00  0.00  0.03  0.00
  WS02004409WS02004410    1.00   0.04  0.00  0.00  0.96  0.00  0.00  0.00  0.03  0.00
  WS02004407WS02004409    1.00   0.04  0.00  0.00  0.96  0.00  0.00  0.00  0.89  0.00
  WS02004406WS02004407    1.00   0.00  0.03  0.00  0.96  0.00  0.00  0.00  0.00  0.00
  WS02004405WS02004406    1.00   0.00  0.00  0.00  1.00  0.00  0.00  0.00  0.01  0.00
  WS02004404WS02004405    1.00   0.00  0.00  0.00  1.00  0.00  0.00  0.00  0.00  0.00
  WS02004403WS02004404    1.00   0.00  0.02  0.00  0.98  0.00  0.00  0.00  0.01  0.00
  WS02004402WS02004403    1.00   0.02  0.00  0.00  0.98  0.00  0.00  0.00  0.00  0.00
  WS02004139WS02001211    1.00   0.00  0.00  0.00  1.00  0.00  0.00  0.00  0.00  0.00
  WS02004138WS02004139    1.00   0.00  0.00  0.00  0.99  0.01  0.00  0.00  1.00  0.00
  WS02003067WS02003066    1.00   0.05  0.01  0.00  0.95  0.00  0.00  0.00  0.00  0.00
  WS02001213WS02003059    1.00   0.00  0.00  0.00  0.99  0.00  0.00  0.00  0.00  0.00
  WS02001212WS02001213    1.00   0.00  0.00  0.00  0.87  0.00  0.12  0.00  0.00  0.00
  WS02001211WS02001212    1.00   0.00  0.00  0.00  1.00  0.00  0.00  0.00  0.00  0.00
  WS02003072WS02003073    1.00   0.00  0.00  0.00  0.00  0.00  0.00  1.00  0.00  0.00
  WS02003069WS02003072    1.00   0.00  0.00  0.00  0.99  0.01  0.00  0.00  0.20  0.00
  WS02003060WS02003069    1.00   0.00  0.00  0.00  0.99  0.01  0.00  0.00  0.07  0.00
  WS02003059WS02003060    1.00   0.00  0.00  0.00  1.00  0.00  0.00  0.00  0.01  0.00
  HS02004901HS02004770    1.00   0.04  0.00  0.00  0.96  0.00  0.00  0.00  0.00  0.00
  HS02004876HS02004881    1.00   0.02  0.00  0.00  0.89  0.09  0.00  0.00  0.00  0.00
  HS02004870HS02004876    1.00   0.00  0.00  0.00  0.99  0.00  0.00  0.00  0.95  0.00
  HS02004842HS02004848    1.00   0.00  0.04  0.00  0.96  0.00  0.00  0.00  0.58  0.00
  HS02004837HS02004842    1.00   0.00  0.00  0.00  0.99  0.01  0.00  0.00  0.11  0.00
  HS02004830HS02004837    1.00   0.00  0.00  0.00  1.00  0.00  0.00  0.00  0.99  0.00
  HS02004824HS02004830    1.00   0.00  0.00  0.00  1.00  0.00  0.00  0.00  0.00  0.00
  HS02004817HS02004824    1.00   0.00  0.00  0.00  1.00  0.00  0.00  0.00  1.00  0.00
  HS02004770HS02004777    1.00   0.00  0.04  0.00  0.96  0.00  0.00  0.00  0.03  0.00
  HS02004799HS02004480    1.00   0.00  0.02  0.00  0.95  0.00  0.02  0.00  0.00  0.00
  HS02004792HS02004799    1.00   0.00  0.00  0.00  0.99  0.01  0.00  0.00  0.98  0.00
  HS02004788HS02004792    1.00   0.00  0.00  0.00  0.99  0.01  0.00  0.00  0.98  0.00
  HS02004785HS02004788    1.00   0.00  0.00  0.00  1.00  0.00  0.00  0.00  0.00  0.00
  HS02004777HS02004785    1.00   0.00  0.00  0.00  1.00  0.00  0.00  0.00  0.14  0.00
  HS02004480HS02004478    1.00   0.04  0.00  0.00  0.64  0.00  0.00  0.31  0.00  0.00
  HS02004479HS02004480    1.00   0.03  0.00  0.00  0.97  0.00  0.00  0.00  0.12  0.00
  HS02004862HS02004870    1.00   0.00  0.00  0.00  1.00  0.00  0.00  0.00  0.05  0.00
  HS02004848HS02004852    1.00   0.04  0.00  0.00  0.96  0.00  0.00  0.00  0.61  0.00
  HS02004856HS02004862    1.00   0.00  0.05  0.00  0.95  0.00  0.00  0.00  0.80  0.00
  HS02004852HS02004856    1.00   0.04  0.00  0.00  0.96  0.00  0.00  0.00  0.85  0.00
  HS02004802HS02004478    1.00   0.04  0.00  0.00  0.96  0.00  0.00  0.00  0.03  0.00
  HS02004478WS02006287    1.00   0.05  0.00  0.00  0.71  0.25  0.00  0.00  0.66  0.00
  HS02004817HS02004807    1.00   0.00  0.04  0.00  0.96  0.00  0.00  0.00  0.01  0.00
  HS02004807HS02004802    1.00   0.04  0.00  0.00  0.96  0.00  0.00  0.00  0.00  0.00
  YS02001759YS02001757    1.00   0.00  0.00  0.00  1.00  0.00  0.00  0.00  0.16  0.00
  YS02001762YS02001759    1.00   0.00  0.00  0.00  1.00  0.00  0.00  0.00  0.04  0.00
  YS02001765YS02001762    1.00   0.00  0.00  0.00  1.00  0.00  0.00  0.00  0.16  0.00
  YS02001770YS02001767    1.00   0.00  0.00  0.00  1.00  0.00  0.00  0.00  0.00  0.00
  YS02001774YS02001770    1.00   0.00  0.04  0.00  0.96  0.00  0.00  0.00  0.04  0.00
  YS02001779YS02001774    1.00   0.00  0.00  0.00  1.00  0.00  0.00  0.00  0.21  0.00
  YS02001649YS02001757    1.00   0.00  0.00  0.00  1.00  0.00  0.00  0.00  0.17  0.00
  YS02001767YS02001765    1.00   0.00  0.00  0.00  1.00  0.00  0.00  0.00  0.00  0.00
  YS02006561YS02001783    1.00   0.05  0.00  0.00  0.37  0.58  0.00  0.00  0.56  0.00
  YS02001783YS02001784    1.00   0.00  0.05  0.00  0.95  0.00  0.00  0.00  0.01  0.00
  YS02001784YS02001785    1.00   0.00  0.00  0.00  1.00  0.00  0.00  0.00  0.20  0.00
  YS02001788YS02001790    1.00   0.00  0.00  0.00  0.45  0.55  0.00  0.00  0.50  0.00
  YS02001790YS02001791    1.00   0.00  0.00  0.00  0.43  0.57  0.00  0.00  0.41  0.00
  YS02001791YS02001793    1.00   0.00  0.00  0.00  0.50  0.50  0.00  0.00  0.03  0.00
  YS02001910YS02001907    1.00   0.00  0.00  0.00  0.98  0.00  0.00  0.02  0.13  0.00
  YS02001786YS02001788    1.00   0.00  0.00  0.00  0.43  0.57  0.00  0.00  0.00  0.00
  YS02001915YS02001910    1.00   0.00  0.00  0.00  0.99  0.01  0.00  0.00  0.18  0.00
  YS02001918YS02001915    1.00   0.00  0.01  0.00  0.98  0.01  0.00  0.00  0.58  0.00
  YS02001923YS02001920    1.00   0.00  0.00  0.00  1.00  0.00  0.00  0.00  0.86  0.00
  YS02001926YS02001923    1.00   0.00  0.03  0.00  0.14  0.00  0.83  0.00  0.00  0.00
  YS02001929YS02001926    1.00   0.00  0.04  0.00  0.96  0.00  0.00  0.00  0.78  0.00
  YS02001920YS02001918    1.00   0.00  0.01  0.00  0.99  0.00  0.00  0.00  0.00  0.00
  YS02001629YS02163301    1.00   0.05  0.00  0.00  0.95  0.00  0.00  0.00  0.00  0.00
  YS02001619YS02001622    1.00   0.04  0.00  0.00  0.96  0.00  0.00  0.00  0.00  0.00
  YS02001622YS02001625    1.00   0.04  0.00  0.00  0.96  0.00  0.00  0.00  0.07  0.00
  YS02001625YS02001629    1.00   0.04  0.01  0.00  0.93  0.00  0.02  0.00  0.00  0.00
  YS02163301YS02001633    1.00   0.00  0.05  0.00  0.95  0.00  0.00  0.00  0.00  0.00
  YS02163601YS02164001    1.00   0.00  0.03  0.00  0.97  0.00  0.00  0.00  0.00  0.00
  YS02164001YS02001641    1.00   0.01  0.02  0.00  0.97  0.00  0.00  0.00  0.06  0.00
  YS02001641YS02001644    1.00   0.00  0.01  0.00  0.99  0.00  0.00  0.00  0.00  0.00
  YS02001647YS02001649    1.00   0.00  0.05  0.00  0.95  0.00  0.00  0.00  0.01  0.00
  YS02006553YS02006556    1.00   0.01  0.00  0.00  0.99  0.00  0.00  0.00  0.03  0.00
  YS02006556YS02006558    1.00   0.00  0.00  0.00  1.00  0.00  0.00  0.00  0.00  0.00
  YSB6556YSB1171          1.00   0.03  0.01  0.00  0.96  0.00  0.00  0.00  0.00  0.00
  YS02001907YS02006553    1.00   0.00  0.02  0.00  0.98  0.00  0.00  0.00  0.00  0.00
  YS02006558YS02006561    1.00   0.05  0.00  0.00  0.18  0.77  0.00  0.00  0.48  0.00
  YS02001633YS02163601    1.00   0.00  0.01  0.00  0.99  0.00  0.00  0.00  0.16  0.00
  YS02001644YS02001647    1.00   0.00  0.05  0.00  0.95  0.00  0.00  0.00  0.00  0.00
  YS02001745YS02001748    1.00   0.00  0.00  0.00  0.88  0.01  0.00  0.10  0.05  0.00
  YS02001748YS02001751    1.00   0.00  0.00  0.00  0.97  0.03  0.00  0.00  0.15  0.00
  YS02001751YS02001754    1.00   0.00  0.00  0.00  0.94  0.00  0.00  0.06  0.02  0.00
  YS02001754YS02001757    1.00   0.00  0.00  0.00  0.99  0.01  0.00  0.00  0.20  0.00
  YS02001882YS02001884    1.00   0.04  0.00  0.00  0.95  0.00  0.00  0.00  0.00  0.00
  YS02001884YS02001887    1.00   0.03  0.01  0.00  0.96  0.00  0.00  0.00  0.00  0.00
  YS02001890YS02001895    1.00   0.00  0.04  0.00  0.95  0.00  0.00  0.00  0.00  0.00
  YS02001895YS02001898    1.00   0.05  0.00  0.00  0.94  0.00  0.01  0.00  0.00  0.00
  YS02001898YS02001901    1.00   0.05  0.00  0.00  0.95  0.00  0.00  0.00  0.02  0.00
  YS02001901YS02001904    1.00   0.05  0.00  0.00  0.95  0.00  0.00  0.00  0.00  0.00
  YS02001904YS02001907    1.00   0.00  0.05  0.00  0.95  0.00  0.00  0.00  0.00  0.00
  YS02001887YS02001890    1.00   0.00  0.00  0.00  0.98  0.00  0.02  0.00  0.00  0.00
  YS02001652YS02001649    1.00   0.00  0.00  0.00  1.00  0.00  0.00  0.00  0.18  0.00
  YS02001655YS02001652    1.00   0.00  0.00  0.00  0.94  0.00  0.00  0.06  0.02  0.00
  YS02001658YS02001655    1.00   0.00  0.04  0.00  0.93  0.03  0.00  0.00  0.11  0.00
  YS02001661YS02001658    1.00   0.04  0.00  0.00  0.88  0.07  0.00  0.00  0.06  0.00
  YS02001664YS02001661    1.00   0.04  0.00  0.00  0.86  0.10  0.00  0.00  0.22  0.00
  YSB1154YSB6556          1.00   0.04  0.00  0.00  0.96  0.00  0.00  0.00  0.02  0.00
  YSB1174YSB1171          1.00   0.03  0.01  0.00  0.97  0.00  0.00  0.00  0.00  0.00
  YSB1171HS02004479       1.00   0.03  0.00  0.00  0.97  0.00  0.00  0.00  0.11  0.00
  HS02004881HS02006253    1.00   0.03  0.00  0.00  0.72  0.05  0.00  0.21  0.59  0.00
  YS02001793JiankangQianchi    1.00   0.00  0.00  0.00  0.68  0.31  0.00  0.00  0.19  0.00
  YS02001757CaochengTiaoxuchi    1.00   0.00  0.07  0.00  0.92  0.01  0.00  0.00  0.00  0.00
  WSF200WS02003060        1.00   0.00  0.04  0.00  0.72  0.23  0.00  0.00  0.31  0.00
  1                       1.00   0.00  0.00  0.00  0.00  1.00  0.00  0.00  0.35  0.00
  2                       1.00   0.63  0.00  0.00  0.00  0.37  0.00  0.00  0.10  0.00
  3                       1.00   0.13  0.00  0.00  0.00  0.87  0.00  0.00  0.29  0.00
  4                       1.00   1.00  0.00  0.00  0.00  0.00  0.00  0.00  0.00  0.00
  
  
  *************************
  Conduit Surcharge Summary
  *************************
  
  ----------------------------------------------------------------------------
                                                           Hours        Hours 
                         --------- Hours Full --------   Above Full   Capacity
  Conduit                Both Ends  Upstream  Dnstream   Normal Flow   Limited
  ----------------------------------------------------------------------------
  WS02006229WS02006228        2.11      2.48      2.11      4.65         2.11
  WS02006256WS02006235        6.14      6.14      7.83      3.17         0.01
  WS02006253WS02006251        0.01      0.01      0.07      0.01         0.01
  WS02006252WS02006251        1.00      1.00      2.17      1.87         0.01
  WS02006251WS02006249        0.01      0.02      0.01      1.08         0.01
  WS02006249WS02006248        0.01      0.01      0.01      4.19         0.01
  WS02006248WS02006247        0.01      0.01      0.06      0.01         0.01
  WS02006247WS02006245        0.05      0.09      0.05      4.71         0.05
  WS02006245WS02006243        0.07      0.07      0.29      0.04         0.01
  WS02006243WS02006242        0.37      0.37      1.09      0.01         0.01
  WS02006242WS02006240        0.61      0.61      1.64      1.98         0.01
  WS02006240WS02006239        0.64      0.64      0.81      0.01         0.01
  WS02006239WS02006238        1.47      1.47      1.68      0.01         0.01
  WS02006238WS02006235        1.45      1.45      2.09      0.01         0.01
  WS02006235WS02006234        0.80      0.80      1.21      6.11         0.01
  WS02006234WS02006232        0.85      0.85      2.26      0.01         0.01
  WS02006232WS02006231        0.71      0.71      2.26      0.01         0.01
  WS02006231WS02006230        0.40      0.40      0.76      6.16         0.01
  WS02006230WS02006229        3.45      4.40      3.45      6.25         3.45
  WS02006228WS02006109        2.30      2.97      2.30      5.47         2.30
  WS02006112WS02006115        0.01      0.01      1.19      0.01         0.01
  WS02006111WS02006112        0.01      0.01      4.82      0.01         0.01
  WS02006110WS02006113        0.01      0.01      2.71      0.01         0.01
  WS02006109WS02006110        0.94      0.94      2.98      0.95         0.01
  WS02004401WS02004402        0.01      0.01      0.05      0.01         0.01
  WS02004406WS02004407        0.01      0.01      0.30      0.01         0.01
  WS02004405WS02004406        0.30      0.44      0.30      1.10         0.30
  WS02004404WS02004405        0.44      0.47      0.44      6.00         0.44
  WS02004403WS02004404        0.06      0.06      0.47      0.01         0.01
  WS02004402WS02004403        0.05      0.05      0.06      0.01         0.01
  WS02003072WS02003073        0.01      0.01      0.01      5.51         0.01
  HS02004480HS02004478        0.01      0.01      0.01      0.25         0.01
  YS02001759YS02001757        5.66      5.66      5.74      0.01         0.01
  YS02001762YS02001759        5.63      5.63      5.66      0.01         0.01
  YS02001765YS02001762        5.60      5.60      5.63      0.01         0.01
  YS02001770YS02001767        5.54      5.55      5.56      0.31         0.79
  YS02001774YS02001770        5.45      5.45      5.63      0.01         0.01
  YS02001779YS02001774        5.39      5.39      5.63      0.01         0.01
  YS02001649YS02001757        5.64      5.64      5.74      0.01         0.01
  YS02001767YS02001765        5.56      5.56      5.60      0.01         0.01
  YS02006561YS02001783        0.65      0.65      1.22      0.01         0.01
  YS02001783YS02001784        1.22      1.22      1.27      1.13         0.98
  YS02001784YS02001785        1.22      1.27      1.22      2.07         1.22
  YS02001788YS02001790        1.20      1.20      2.20      0.01         0.01
  YS02001790YS02001791        2.20      2.20      2.33      0.49         0.48
  YS02001791YS02001793        2.33      2.33      3.10      0.01         0.01
  YS02001910YS02001907        0.98      0.98      1.48      0.01         0.01
  YS02001786YS02001788        1.20      1.22      1.20      1.68         1.20
  YS02001915YS02001910        0.77      0.77      0.98      0.01         0.01
  YS02001918YS02001915        0.52      0.52      0.77      0.01         0.01
  YS02001923YS02001920        0.28      0.28      0.56      0.01         0.01
  YS02001920YS02001918        0.52      0.52      0.56      0.01         0.01
  YS02001629YS02163301        5.46      5.46      5.54      0.01         0.01
  YS02001619YS02001622        5.24      5.24      5.26      0.01         0.01
  YS02001622YS02001625        5.26      5.26      5.42      0.01         0.01
  YS02001625YS02001629        5.25      5.25      5.42      0.01         0.01
  YS02163301YS02001633        5.54      5.54      5.61      0.01         0.01
  YS02163601YS02164001        5.60      5.60      5.64      0.01         0.01
  YS02164001YS02001641        5.60      5.60      5.62      0.01         0.03
  YS02001641YS02001644        5.62      5.62      5.62      1.21         1.35
  YS02001647YS02001649        5.43      5.43      5.64      0.01         0.01
  YS02006553YS02006556        1.20      1.20      1.55      0.01         0.01
  YS02006556YS02006558        1.37      1.37      1.63      0.01         0.01
  YS02001907YS02006553        2.09      2.09      2.30      0.01         0.01
  YS02006558YS02006561        0.87      1.16      0.87      1.93         0.87
  YS02001633YS02163601        5.60      5.60      5.64      0.01         0.01
  YS02001644YS02001647        5.43      5.43      5.62      0.01         0.01
  YS02001745YS02001748        0.01      0.01      5.05      0.01         0.01
  YS02001748YS02001751        5.10      5.10      5.24      0.01         0.01
  YS02001751YS02001754        5.24      5.24      5.40      0.01         0.01
  YS02001754YS02001757        5.42      5.42      5.74      0.01         0.01
  YS02001882YS02001884        0.78      0.78      0.81      0.01         0.01
  YS02001884YS02001887        0.88      0.88      0.90      0.01         0.01
  YS02001890YS02001895        0.75      0.75      1.00      0.01         0.01
  YS02001895YS02001898        0.74      0.74      0.75      0.01         0.01
  YS02001898YS02001901        0.76      0.76      0.87      0.01         0.01
  YS02001901YS02001904        0.85      0.85      0.87      0.01         0.01
  YS02001904YS02001907        0.85      0.85      1.58      0.01         0.01
  YS02001887YS02001890        0.93      0.93      0.97      0.01         0.01
  YS02001652YS02001649        5.43      5.43      5.64      0.01         0.01
  YS02001655YS02001652        5.27      5.27      5.42      0.01         0.01
  YS02001658YS02001655        5.09      5.09      5.27      0.01         0.01
  YS02001661YS02001658        0.19      0.19      5.09      0.01         0.01
  YS02001664YS02001661        0.01      0.01      1.07      0.01         0.01
  YS02001793JiankangQianchi        2.59      2.59      3.79      0.01         0.01
  YS02001757CaochengTiaoxuchi        4.91      4.91      5.74      0.01         0.01
  
  
  ***************
  Pumping Summary
  ***************
  
  ---------------------------------------------------------------------------------------------------------
                                                  Min       Avg       Max     Total     Power    % Time Off
                        Percent   Number of      Flow      Flow      Flow    Volume     Usage    Pump Curve
  Pump                 Utilized   Start-Ups       LPS       LPS       LPS  10^6 ltr     Kw-hr    Low   High
  ---------------------------------------------------------------------------------------------------------
  CC-Pump-1               60.91           7      0.00    130.41    200.00     2.200      3.29    0.0    9.2
  CC-Pump-2               63.02           8      0.00    130.67    200.00     2.261      3.31    0.0    8.9
  JK-Pump-1               82.98           4      0.00    205.88    300.00     3.674     36.24    0.0    0.0
  JK-Pump-2               78.70           5      0.00    157.15    300.00     2.658     30.08    0.0    0.0
  XR-Pump-1               87.23           8      0.00     67.02     95.00     1.682     15.75    0.0    0.0
  XR-Pump-2               80.84           7      0.00     67.19     95.00     1.596     15.45    0.0    0.0
  XR-Pump-3               89.34           8      0.00     73.95     95.00     1.910     17.41    0.0    0.0
  XR-Pump-4               80.83           5      0.00     72.48     95.00     1.624     14.05    0.0    0.0
  

  Analysis begun on:  Tue Dec 21 09:15:12 2021
  Analysis ended on:  Tue Dec 21 09:15:16 2021
  Total elapsed time: 00:00:04