
  EPA STORM WATER MANAGEMENT MODEL - VERSION 5.1 (Build 5.3.0.dev0)
  --------------------------------------------------------------

  WARNING 04: minimum elevation drop used for Conduit WS02004404WS02004405
  WARNING 03: negative offset ignored for Link YS02001904YS02001907
  
  *********************************************************
  NOTE: The summary statistics displayed in this report are
  based on results found at every computational time step,  
  not just on results from each reporting time step.
  *********************************************************
  
  ****************
  Analysis Options
  ****************
  Flow Units ............... LPS
  Process Models:
    Rainfall/Runoff ........ YES
    RDII ................... NO
    Snowmelt ............... NO
    Groundwater ............ NO
    Flow Routing ........... YES
    Ponding Allowed ........ NO
    Water Quality .......... NO
  Infiltration Method ...... HORTON
  Flow Routing Method ...... DYNWAVE
  Surcharge Method ......... EXTRAN
  Starting Date ............ 08/28/2015 08:00:00
  Ending Date .............. 08/28/2015 15:50:00
  Antecedent Dry Days ...... 8.0
  Report Time Step ......... 00:01:00
  Wet Time Step ............ 00:01:00
  Dry Time Step ............ 00:01:00
  Routing Time Step ........ 5.00 sec
  Variable Time Step ....... YES
  Maximum Trials ........... 8
  Number of Threads ........ 4
  Head Tolerance ........... 0.001500 m
  
  
  **************************        Volume         Depth
  Runoff Quantity Continuity     hectare-m            mm
  **************************     ---------       -------
  Total Precipitation ......         6.144        13.452
  Evaporation Loss .........         0.000         0.000
  Infiltration Loss ........         1.572         3.442
  Surface Runoff ...........         3.480         7.619
  Final Storage ............         1.093         2.393
  Continuity Error (%) .....        -0.016
  
  
  **************************        Volume        Volume
  Flow Routing Continuity        hectare-m      10^6 ltr
  **************************     ---------     ---------
  Dry Weather Inflow .......         0.616         6.165
  Wet Weather Inflow .......         3.479        34.788
  Groundwater Inflow .......         0.000         0.000
  RDII Inflow ..............         0.000         0.000
  External Inflow ..........         0.102         1.024
  External Outflow .........         2.154        21.539
  Flooding Loss ............         1.527        15.272
  Evaporation Loss .........         0.000         0.000
  Exfiltration Loss ........         0.000         0.000
  Initial Stored Volume ....         0.076         0.761
  Final Stored Volume ......         0.637         6.366
  Continuity Error (%) .....        -1.030
  
  
  *************************
  Highest Continuity Errors
  *************************
  Node HS02004842 (15.27%)
  Node YS02001884 (11.34%)
  Node JK-storage (-3.96%)
  Node YSB1171 (2.79%)
  Node HS02004817 (2.78%)
  
  
  ***************************
  Time-Step Critical Elements
  ***************************
  Link 3 (45.96%)
  Link WS02006252WS02006251 (43.57%)
  Link WS02006238WS02006235 (4.24%)
  Link WS02006280WS02006229 (1.55%)
  
  
  ********************************
  Highest Flow Instability Indexes
  ********************************
  Link YS02163601YS02164001 (39)
  Link YS02001629YS02163301 (39)
  Link YS02163301YS02001633 (38)
  Link YS02001619YS02001622 (37)
  Link YS02164001YS02001641 (36)
  
  
  *************************
  Routing Time Step Summary
  *************************
  Minimum Time Step           :     0.25 sec
  Average Time Step           :     0.77 sec
  Maximum Time Step           :     5.00 sec
  Percent in Steady State     :    -0.00
  Average Iterations per Step :     4.60
  Percent Not Converging      :    21.49
  
  
  ***************************
  Subcatchment Runoff Summary
  ***************************
  
  ------------------------------------------------------------------------------------------------------------------------------
                            Total      Total      Total      Total     Imperv       Perv      Total       Total     Peak  Runoff
                           Precip      Runon       Evap      Infil     Runoff     Runoff     Runoff      Runoff   Runoff   Coeff
  Subcatchment                 mm         mm         mm         mm         mm         mm         mm    10^6 ltr      LPS
  ------------------------------------------------------------------------------------------------------------------------------
  sub0                      13.45       0.00       0.00       0.89      11.25       0.05      11.30        0.01     3.67   0.840
  sub1                      13.45       0.00       0.00       1.45      10.71       0.03      10.74        0.07    24.31   0.799
  sub2                      13.45       0.00       0.00       4.95       7.56       0.02       7.58        0.07    22.93   0.564
  sub3                      13.45       0.00       0.00       4.96       7.52       0.02       7.54        0.17    51.30   0.560
  sub4                      13.45       0.00       0.00       1.46      10.54       0.02      10.56        0.22    61.94   0.785
  sub5                      13.45       0.00       0.00       0.91      11.19       0.03      11.22        0.13    43.21   0.834
  sub7                      13.45       0.00       0.00       1.17      10.98       0.04      11.03        0.04    13.69   0.820
  sub8                      13.45       0.00       0.00       1.17      10.97       0.04      11.01        0.07    25.15   0.819
  sub9                      13.45       0.00       0.00       1.17      10.97       0.04      11.01        0.05    18.81   0.818
  sub10                     13.45       0.00       0.00       1.04      11.08       0.03      11.11        0.12    42.29   0.826
  sub11                     13.45       0.00       0.00       1.04      11.10       0.04      11.14        0.13    46.68   0.828
  sub12                     13.45       0.00       0.00       1.69      10.51       0.06      10.58        0.09    35.94   0.786
  sub14                     13.45       0.00       0.00       1.17      10.97       0.04      11.01        0.10    37.02   0.818
  sub15                     13.45       0.00       0.00       4.00       8.43       0.04       8.47        0.15    51.03   0.630
  sub16                     13.45       0.00       0.00       4.38       8.09       0.06       8.15        0.09    32.58   0.606
  sub17                     13.45       0.00       0.00       4.25       8.21       0.06       8.27        0.07    26.73   0.615
  sub22                     13.45       0.00       0.00       5.74       6.88       0.04       6.92        0.44   159.06   0.514
  sub23                     13.45       0.00       0.00       4.93       7.60       0.05       7.65        0.36   133.95   0.569
  sub60                     13.45       0.00       0.00       1.61       8.73       0.00       8.74        2.65   387.96   0.649
  sub61                     13.45       0.00       0.00       2.28       8.88       0.00       8.88        2.74   483.52   0.660
  sub62                     13.45       0.00       0.00       1.07       9.65       0.00       9.66        2.97   496.42   0.718
  sub63                     13.45       0.00       0.00       3.90       7.77       0.00       7.77        2.35   446.68   0.578
  sub64                     13.45       0.00       0.00       2.01       8.38       0.00       8.38        2.55   368.35   0.623
  sub65                     13.45       0.00       0.00       1.75       8.52       0.00       8.52        2.62   373.60   0.634
  sub66                     13.45       0.00       0.00       3.90       7.19       0.00       7.19        2.21   337.96   0.535
  sub67                     13.45       0.00       0.00       1.07      10.19       0.01      10.19        3.15   622.58   0.758
  sub68                     13.45       0.00       0.00       1.88       9.34       0.01       9.34        2.87   531.38   0.694
  sub69                     13.45       0.00       0.00       2.01       9.68       0.01       9.69        2.26   503.32   0.720
  sub70                     13.45       9.89       0.00       7.67      12.93       0.26      13.20        3.02   423.72   0.565
  sub71                     13.45       0.00       0.00       1.07       9.40       0.00       9.40        2.22   347.35   0.699
  sub72                     13.45       0.00       0.00       0.94       7.49       0.00       7.50        1.53   163.23   0.557
  sub73                     13.45      12.84       0.00       8.67      14.26       0.27      14.53        3.41   375.92   0.552
  sub74                     13.45       0.00       0.00      10.09       2.88       0.00       2.89        1.15   273.25   0.215
  
  
  ******************
  Node Depth Summary
  ******************
  
  ---------------------------------------------------------------------------------
                                 Average  Maximum  Maximum  Time of Max    Reported
                                   Depth    Depth      HGL   Occurrence   Max Depth
  Node                 Type       Meters   Meters   Meters  days hr:min      Meters
  ---------------------------------------------------------------------------------
  WS02001211           JUNCTION     0.67     0.80     5.64     0  03:02        0.80
  WS02001212           JUNCTION     0.40     0.53     5.59     0  03:03        0.53
  WS02001213           JUNCTION     0.64     0.80     5.56     0  03:04        0.80
  WS02003069           JUNCTION     0.47     0.66     5.25     0  03:06        0.66
  WS02003072           JUNCTION     0.53     0.71     5.08     0  03:06        0.71
  WS02003073           JUNCTION     0.32     0.44     4.51     0  03:07        0.44
  WS02003060           JUNCTION     0.41     0.58     5.52     0  03:05        0.58
  WS02003066           JUNCTION     0.25     0.36     5.91     0  03:05        0.36
  WS02003059           JUNCTION     0.70     0.86     5.55     0  03:05        0.86
  WS02003067           JUNCTION     0.61     0.79     6.11     0  03:05        0.79
  WS02004401           JUNCTION     0.72     1.11     7.11     0  03:03        1.11
  WS02004402           JUNCTION     0.75     1.11     7.07     0  03:03        1.11
  WS02004403           JUNCTION     0.77     1.10     7.03     0  03:03        1.10
  WS02004404           JUNCTION     0.84     1.15     7.00     0  03:03        1.15
  WS02004406           JUNCTION     0.85     1.10     6.93     0  03:03        1.10
  WS02004409           JUNCTION     0.54     0.85     6.62     0  03:04        0.85
  WS02004410           JUNCTION     0.56     0.85     6.57     0  03:04        0.85
  WS02004411           JUNCTION     0.57     0.84     6.52     0  03:04        0.84
  WS02004412           JUNCTION     0.58     0.83     6.47     0  03:05        0.83
  WS02004413           JUNCTION     0.74     0.97     6.44     0  03:05        0.97
  WS02004405           JUNCTION     0.84     1.13     6.98     0  03:03        1.13
  WS02006109           JUNCTION     0.81     1.26     7.88     0  03:02        1.25
  WS02006110           JUNCTION     0.79     1.11     7.69     0  03:02        1.11
  WS02006111           JUNCTION     0.25     0.60     7.31     0  03:03        0.60
  WS02006112           JUNCTION     0.90     1.39     7.27     0  03:03        1.38
  WS02006113           JUNCTION     0.37     0.61     7.50     0  03:03        0.61
  WS02006115           JUNCTION     0.62     1.06     7.20     0  03:03        1.06
  WS02006116           JUNCTION     0.70     1.12     7.16     0  03:03        1.12
  WS02006230           JUNCTION     0.80     1.39     8.13     0  03:02        1.38
  WS02006231           JUNCTION     0.54     1.03     8.15     0  03:02        1.01
  WS02006232           JUNCTION     0.68     1.12     8.16     0  03:02        1.11
  WS02006234           JUNCTION     0.60     1.01     8.17     0  03:02        1.00
  WS02006235           JUNCTION     0.63     1.02     8.18     0  03:02        1.00
  WS02006238           JUNCTION     0.66     1.04     8.18     0  03:02        1.03
  WS02006240           JUNCTION     0.56     0.91     8.20     0  03:02        0.89
  WS02006242           JUNCTION     0.62     0.94     8.21     0  03:02        0.94
  WS02006243           JUNCTION     0.50     0.79     8.21     0  03:02        0.79
  WS02006245           JUNCTION     0.47     0.74     8.22     0  03:02        0.73
  WS02006247           JUNCTION     0.49     0.73     8.23     0  03:02        0.73
  WS02006248           JUNCTION     0.43     0.64     8.23     0  03:02        0.64
  WS02006249           JUNCTION     0.45     0.64     8.24     0  03:02        0.64
  WS02006239           JUNCTION     0.62     0.98     8.19     0  03:02        0.97
  WS02006251           JUNCTION     0.45     0.64     8.31     0  03:30        0.64
  WS02006252           JUNCTION     0.38     0.59     8.84     0  04:08        0.59
  WS02006253           JUNCTION     0.47     0.67     8.31     0  03:31        0.67
  WS02006256           JUNCTION     1.07     1.23     8.17     0  03:02        1.23
  WS02004138           JUNCTION     0.15     0.20     7.45     0  00:00        0.19
  WS02004407           JUNCTION     0.24     0.37     6.68     0  03:03        0.37
  WS02006228           JUNCTION     0.82     1.38     8.04     0  03:02        1.37
  WS02006229           JUNCTION     0.80     1.42     8.12     0  03:02        1.41
  WS02006280           JUNCTION     0.07     0.24     8.52     0  03:02        0.24
  WS02006284           JUNCTION     0.37     0.63     9.02     0  03:02        0.62
  WS02006287           JUNCTION     0.11     0.37     9.32     0  03:02        0.37
  WSF200               JUNCTION     0.24     0.40     5.63     0  03:05        0.40
  HS02004901           JUNCTION     0.13     0.35    10.17     0  03:01        0.35
  HS02004881           JUNCTION     0.01     0.05     9.08     0  03:01        0.05
  HS02004876           JUNCTION     0.05     0.15     9.18     0  03:01        0.15
  HS02004870           JUNCTION     0.02     0.09     9.37     0  03:01        0.09
  HS02004862           JUNCTION     0.02     0.10     9.49     0  03:01        0.10
  HS02004856           JUNCTION     0.08     0.15     9.57     0  03:01        0.15
  HS02004852           JUNCTION     0.01     0.07     9.58     0  03:02        0.07
  HS02004848           JUNCTION     0.01     0.06     9.67     0  03:01        0.06
  HS02004842           JUNCTION     0.33     0.40     9.67     0  03:01        0.40
  HS02004837           JUNCTION     0.03     0.09     9.67     0  03:01        0.09
  HS02004830           JUNCTION     0.04     0.10     9.57     0  03:01        0.10
  HS02004824           JUNCTION     0.03     0.11     9.51     0  03:02        0.11
  HS02004817           JUNCTION     0.45     0.67     9.52     0  03:02        0.67
  HS02004807           JUNCTION     0.13     0.34     9.51     0  03:02        0.34
  HS02004802           JUNCTION     0.17     0.38     9.50     0  03:02        0.38
  HS02004799           JUNCTION     0.13     0.43     9.65     0  03:01        0.43
  HS02004792           JUNCTION     0.04     0.20     9.72     0  03:01        0.19
  HS02004788           JUNCTION     0.03     0.14    10.04     0  03:02        0.14
  HS02004785           JUNCTION     0.05     0.23    10.13     0  03:02        0.23
  HS02004777           JUNCTION     0.15     0.37    10.17     0  03:01        0.37
  HS02004770           JUNCTION     0.12     0.34    10.17     0  03:01        0.34
  HS02004480           JUNCTION     0.09     0.35     9.59     0  03:01        0.35
  HS02004479           JUNCTION     0.13     0.39     9.60     0  03:01        0.39
  HS02004478           JUNCTION     0.07     0.26     9.48     0  03:01        0.26
  YS02001745           JUNCTION     0.71     0.89     8.41     0  03:23        0.89
  YS02001748           JUNCTION     1.10     2.26     9.34     0  02:45        1.33
  YS02001751           JUNCTION     1.28     2.11     8.99     0  02:45        1.53
  YS02001754           JUNCTION     1.53     2.06     8.67     0  02:45        1.81
  YS02001762           JUNCTION     1.73     2.04     8.44     0  03:07        2.03
  YS02001765           JUNCTION     1.68     1.98     8.43     0  02:59        1.98
  YS02001767           JUNCTION     1.65     1.94     8.43     0  03:00        1.93
  YS02001770           JUNCTION     1.64     1.92     8.41     0  03:00        1.91
  YS02001774           JUNCTION     1.71     1.98     8.40     0  03:17        1.97
  YS02001779           JUNCTION     1.46     1.68     8.37     0  02:44        1.68
  YS02001882           JUNCTION     0.59     1.64     8.36     0  02:50        1.63
  YS02001884           JUNCTION     0.68     1.73     8.35     0  03:00        1.72
  YS02001759           JUNCTION     1.76     2.08     8.44     0  03:06        2.07
  YS02001887           JUNCTION     0.76     1.81     8.35     0  03:00        1.80
  YS02001890           JUNCTION     0.79     1.81     8.32     0  02:50        1.81
  YS02001898           JUNCTION     0.55     1.57     8.30     0  02:50        1.56
  YS02001901           JUNCTION     0.67     1.68     8.29     0  03:00        1.67
  YS02001904           JUNCTION     0.65     1.64     8.27     0  02:50        1.63
  YS02001907           JUNCTION     0.98     1.96     8.25     0  02:50        1.96
  YS02001910           JUNCTION     0.77     1.79     8.30     0  02:52        1.78
  YS02001915           JUNCTION     0.57     1.61     8.32     0  02:52        1.59
  YS02001918           JUNCTION     0.31     1.30     8.37     0  02:52        1.29
  YS02001619           JUNCTION     1.25     1.61     8.54     0  02:40        1.48
  YS02001629           JUNCTION     1.60     1.85     8.40     0  02:41        1.84
  YS02001641           JUNCTION     1.70     1.94     8.38     0  02:46        1.93
  YS02001644           JUNCTION     1.70     1.92     8.35     0  02:46        1.92
  YS02001652           JUNCTION     1.54     2.16     8.76     0  02:55        1.97
  YS02001655           JUNCTION     1.31     2.20     9.05     0  02:41        1.86
  YS02001920           JUNCTION     0.41     1.38     8.39     0  02:52        1.37
  YS02001923           JUNCTION     0.25     1.15     8.41     0  02:52        1.14
  YS02001926           JUNCTION     0.30     0.98     8.42     0  02:52        0.95
  YS02001929           JUNCTION     0.17     0.76     8.45     0  02:52        0.69
  YS02001658           JUNCTION     1.04     2.30     9.44     0  02:41        1.63
  YS02001661           JUNCTION     0.81     2.46     9.86     0  02:57        1.37
  YS02001664           JUNCTION     0.36     0.57     8.50     0  03:50        0.56
  YS02001622           JUNCTION     1.27     1.62     8.52     0  02:40        1.50
  YS02001633           JUNCTION     1.69     1.97     8.42     0  02:46        1.94
  YS02001649           JUNCTION     1.74     2.05     8.44     0  02:53        2.05
  YS02001757           JUNCTION     1.86     2.18     8.44     0  03:25        2.17
  YS02001895           JUNCTION     0.55     1.57     8.31     0  02:51        1.56
  YS02001625           JUNCTION     1.55     1.78     8.38     0  02:41        1.78
  YS02163301           JUNCTION     1.63     1.90     8.42     0  02:46        1.87
  YS02163601           JUNCTION     1.74     2.02     8.41     0  02:46        1.98
  YS02164001           JUNCTION     1.68     1.94     8.40     0  02:46        1.91
  YS02001647           JUNCTION     1.53     1.80     8.41     0  03:46        1.79
  YSB1154              JUNCTION     0.27     0.54     9.60     0  03:01        0.54
  YSB6556              JUNCTION     0.16     0.43     9.60     0  03:02        0.43
  YSB1174              JUNCTION     0.22     0.49     9.60     0  03:01        0.49
  YSB1171              JUNCTION     0.42     0.69     9.60     0  03:01        0.69
  YS02006553           JUNCTION     0.98     1.97     8.25     0  03:02        1.96
  YS02006561           JUNCTION     0.35     1.10     7.76     0  02:50        1.09
  YS02006556           JUNCTION     0.95     1.93     8.24     0  03:00        1.93
  YS02006558           JUNCTION     0.99     1.98     8.24     0  03:00        1.96
  YS02001783           JUNCTION     0.58     2.32     8.46     0  02:39        1.47
  YS02001784           JUNCTION     0.59     2.29     8.36     0  02:39        1.42
  YS02001786           JUNCTION     0.53     2.04     8.07     0  02:39        1.26
  YS02001788           JUNCTION     0.47     2.05     8.03     0  02:39        1.12
  YS02001790           JUNCTION     0.58     1.96     7.60     0  02:38        1.29
  YS02001791           JUNCTION     0.56     1.71     7.18     0  02:38        1.27
  YS02001793           JUNCTION     0.75     1.97     6.81     0  02:39        1.80
  WS02004139           JUNCTION     0.61     0.74     5.65     0  03:02        0.74
  WSC                  OUTFALL      0.32     0.44     1.11     0  03:07        0.44
  3                    OUTFALL      0.11     0.23     6.23     0  03:02        0.23
  4                    OUTFALL      0.04     0.14     7.14     0  03:02        0.14
  5                    OUTFALL      0.00     0.00     5.00     0  00:00        0.00
  JK-storage           STORAGE      2.90     5.80     6.60     0  02:39        5.80
  CC-storage           STORAGE      1.09     1.38     8.38     0  03:24        1.38
  XR-storage           STORAGE      6.48     7.72     5.72     0  03:05        7.72
  
  
  *******************
  Node Inflow Summary
  *******************
  
  -------------------------------------------------------------------------------------------------
                                  Maximum  Maximum                  Lateral       Total        Flow
                                  Lateral    Total  Time of Max      Inflow      Inflow     Balance
                                   Inflow   Inflow   Occurrence      Volume      Volume       Error
  Node                 Type           LPS      LPS  days hr:min    10^6 ltr    10^6 ltr     Percent
  -------------------------------------------------------------------------------------------------
  WS02001211           JUNCTION      7.35   388.20     0  04:39       0.207        7.38       0.473
  WS02001212           JUNCTION      0.00   388.72     0  04:39           0        7.35       0.296
  WS02001213           JUNCTION      0.00   389.04     0  04:38           0        7.33       0.337
  WS02003069           JUNCTION      0.32  1165.48     0  03:05     0.00902        16.4       0.186
  WS02003072           JUNCTION      0.00  1165.33     0  03:06           0        16.4       0.230
  WS02003073           JUNCTION      1.82  1167.19     0  03:06      0.0514        16.4       0.262
  WS02003060           JUNCTION     16.53  1165.11     0  03:05       0.466        16.5       0.174
  WS02003066           JUNCTION      0.00   801.52     0  03:05           0        8.75       0.049
  WS02003059           JUNCTION      0.00   389.78     0  04:38           0         7.3       0.505
  WS02003067           JUNCTION      0.00   801.07     0  03:05           0        8.76       0.104
  WS02004401           JUNCTION      0.00   804.79     0  03:03           0        8.98       0.221
  WS02004402           JUNCTION      0.00   804.84     0  03:03           0        8.96       0.210
  WS02004403           JUNCTION      0.00   804.86     0  03:03           0        8.94       0.193
  WS02004404           JUNCTION      0.16   805.04     0  03:03     0.00457        8.93       0.147
  WS02004406           JUNCTION      0.00   805.11     0  03:03           0        8.89       0.359
  WS02004409           JUNCTION      0.00   804.93     0  03:03           0        8.86       0.171
  WS02004410           JUNCTION      0.00   803.05     0  03:04           0        8.84       0.195
  WS02004411           JUNCTION      0.00   801.79     0  03:04           0        8.82       0.203
  WS02004412           JUNCTION      0.00   801.14     0  03:04           0        8.81       0.221
  WS02004413           JUNCTION      0.00   800.98     0  03:05           0        8.79       0.330
  WS02004405           JUNCTION      0.04   805.09     0  03:03     0.00107        8.91       0.220
  WS02006109           JUNCTION      1.23   789.84     0  03:02      0.0347        9.02       0.225
  WS02006110           JUNCTION      0.00   789.85     0  03:02           0           9       0.198
  WS02006111           JUNCTION      0.00   786.67     0  03:02           0        8.97       0.041
  WS02006112           JUNCTION     26.73   804.44     0  03:03      0.0709        9.04       0.302
  WS02006113           JUNCTION      0.00   789.81     0  03:02           0        8.98       0.091
  WS02006115           JUNCTION      0.00   804.42     0  03:03           0        9.01       0.199
  WS02006116           JUNCTION      0.00   804.64     0  03:03           0        8.99       0.191
  WS02006230           JUNCTION     10.28   402.70     0  05:09        0.29        6.92       0.159
  WS02006231           JUNCTION      0.00   392.52     0  05:02           0        6.64       0.159
  WS02006232           JUNCTION      0.00   392.58     0  05:02           0        6.66       0.216
  WS02006234           JUNCTION      0.00   394.41     0  05:01           0        6.66       0.090
  WS02006235           JUNCTION      0.00   394.42     0  05:01           0        6.71       0.142
  WS02006238           JUNCTION      0.00   339.79     0  03:50           0        4.86       0.126
  WS02006240           JUNCTION      0.00   336.39     0  03:50           0        4.84       0.206
  WS02006242           JUNCTION      0.00   335.32     0  05:51           0        4.84       0.267
  WS02006243           JUNCTION      0.00   334.57     0  05:31           0        4.84       0.053
  WS02006245           JUNCTION      0.00   333.62     0  05:31           0        4.85       0.192
  WS02006247           JUNCTION      0.00   332.77     0  05:30           0        4.85       0.134
  WS02006248           JUNCTION      0.00   336.11     0  06:30           0        4.86       0.070
  WS02006249           JUNCTION      0.00   419.73     0  03:30           0        5.57       0.197
  WS02006239           JUNCTION      0.00   339.22     0  03:50           0        4.85       0.191
  WS02006251           JUNCTION      0.08   420.15     0  03:30     0.00217         5.6       0.155
  WS02006252           JUNCTION      0.00   400.00     0  03:30           0        5.17       0.008
  WS02006253           JUNCTION      3.67   134.78     0  03:01     0.00915       0.435       0.840
  WS02006256           JUNCTION      0.00   600.00     0  03:00           0        6.33       0.040
  WS02004138           JUNCTION      0.00   380.00     0  00:00           0        7.21       0.082
  WS02004407           JUNCTION      0.00   805.15     0  03:03           0        8.86       0.075
  WS02006228           JUNCTION      0.00   788.61     0  03:02           0           9       0.151
  WS02006229           JUNCTION      0.00   788.74     0  03:02           0        9.01       0.122
  WS02006280           JUNCTION      0.00   611.95     0  03:02           0         2.1       0.003
  WS02006284           JUNCTION      0.10   611.06     0  03:02      0.0027         2.1       0.059
  WS02006287           JUNCTION      0.00   609.82     0  03:02           0         2.1       0.034
  WSF200               JUNCTION      0.00   801.65     0  03:05           0        8.74       0.045
  HS02004901           JUNCTION     32.58    32.58     0  03:01      0.0853      0.0856       2.108
  HS02004881           JUNCTION     13.69   131.68     0  03:01      0.0372       0.403       0.090
  HS02004876           JUNCTION     24.31   119.36     0  03:01      0.0714       0.367       0.153
  HS02004870           JUNCTION     25.15    96.63     0  03:01      0.0703       0.295       0.038
  HS02004862           JUNCTION     23.13    73.48     0  03:01      0.0763       0.225       0.079
  HS02004856           JUNCTION     18.81    51.88     0  03:01      0.0529        0.15       0.973
  HS02004852           JUNCTION      0.00    35.11     0  03:01           0      0.0975       0.061
  HS02004848           JUNCTION     51.30    51.30     0  03:01        0.17        0.17       0.030
  HS02004842           JUNCTION      0.00    15.11     0  03:01           0      0.0852      18.025
  HS02004837           JUNCTION     48.64    62.30     0  03:01       0.302       0.374       0.219
  HS02004830           JUNCTION      0.15    61.39     0  03:01     0.00423       0.364       0.341
  HS02004824           JUNCTION     61.99   121.77     0  03:01       0.222       0.584       0.093
  HS02004817           JUNCTION      0.60   117.99     0  03:02      0.0169       0.601       2.855
  HS02004807           JUNCTION     46.68   158.05     0  03:01       0.129       0.713       0.602
  HS02004802           JUNCTION      0.00   156.92     0  03:03           0       0.709       0.572
  HS02004799           JUNCTION     37.02   389.10     0  03:01       0.105        1.19       0.208
  HS02004792           JUNCTION    159.34   356.47     0  03:01       0.445        1.08       0.038
  HS02004788           JUNCTION     52.70   202.58     0  03:02       0.193       0.638       0.062
  HS02004785           JUNCTION      0.15   157.28     0  03:01     0.00423       0.447       0.112
  HS02004777           JUNCTION      0.03   160.02     0  03:01    0.000846       0.447       1.175
  HS02004770           JUNCTION    133.95   163.77     0  03:01       0.365       0.449       0.699
  HS02004480           JUNCTION      0.00   456.70     0  03:01           0         1.4       0.083
  HS02004479           JUNCTION      0.00    72.19     0  03:02           0       0.228       0.322
  HS02004478           JUNCTION      0.00   609.30     0  03:02           0         2.1       0.019
  YS02001745           JUNCTION    387.96   387.96     0  03:01        2.65        2.65       0.400
  YS02001748           JUNCTION      0.04   514.51     0  02:44     0.00127        2.64       0.888
  YS02001751           JUNCTION      0.01   400.82     0  03:01     0.00031        2.62       0.908
  YS02001754           JUNCTION      0.26   401.04     0  03:01     0.00733         2.6       0.967
  YS02001762           JUNCTION      0.00   372.18     0  02:54           0        1.86       1.151
  YS02001765           JUNCTION      0.00   371.79     0  02:54           0        1.86       1.323
  YS02001767           JUNCTION      0.54   371.95     0  02:54      0.0151        1.88       1.932
  YS02001770           JUNCTION    496.57   496.57     0  03:01        2.97        3.03       1.043
  YS02001774           JUNCTION      0.00   398.15     0  03:25           0         1.2       2.140
  YS02001779           JUNCTION      0.01   398.17     0  03:25    0.000141        1.17       1.340
  YS02001882           JUNCTION      0.00    32.66     0  02:41           0      0.0204      12.876
  YS02001884           JUNCTION      0.00    64.08     0  02:41           0      0.0565      12.790
  YS02001759           JUNCTION    483.56   747.59     0  02:54        2.74         4.5       0.513
  YS02001887           JUNCTION    623.03   623.05     0  03:01        3.16        3.19       0.277
  YS02001890           JUNCTION      0.00   623.24     0  03:01           0        3.14       0.301
  YS02001898           JUNCTION      0.00   517.45     0  03:02           0        3.09       0.118
  YS02001901           JUNCTION      0.00   517.47     0  03:02           0        3.08       0.228
  YS02001904           JUNCTION      0.00   517.38     0  03:02           0        3.08       0.209
  YS02001907           JUNCTION      0.00  1058.67     0  03:01           0        6.88       0.359
  YS02001910           JUNCTION      0.00   542.08     0  03:01           0        3.81       0.320
  YS02001915           JUNCTION    347.37   542.05     0  03:01        2.22        3.85       0.165
  YS02001918           JUNCTION      0.00   278.75     0  02:53           0        1.66       0.119
  YS02001619           JUNCTION    337.96   337.96     0  03:01        2.21        2.21       0.553
  YS02001629           JUNCTION      0.00   215.06     0  02:48           0        1.56       1.871
  YS02001641           JUNCTION      0.00   454.51     0  02:49           0        4.08       0.518
  YS02001644           JUNCTION    368.39  1141.10     0  03:23        2.55        8.81       0.297
  YS02001652           JUNCTION      0.00   485.62     0  03:01           0         2.3       1.012
  YS02001655           JUNCTION      0.15   485.95     0  03:01     0.00434        2.33       1.090
  YS02001920           JUNCTION      2.87   278.67     0  02:53      0.0809        1.64       0.189
  YS02001923           JUNCTION      0.04   251.05     0  02:53     0.00106        1.54       0.052
  YS02001926           JUNCTION      0.05   194.34     0  02:53     0.00147        1.53       0.223
  YS02001929           JUNCTION    163.23   163.23     0  03:01        1.53        1.53       0.038
  YS02001658           JUNCTION      0.00   657.66     0  02:41           0        2.36       0.980
  YS02001661           JUNCTION      0.00   740.81     0  03:03           0        3.07      -0.115
  YS02001664           JUNCTION    446.68   446.68     0  03:01        2.35        3.07       0.219
  YS02001622           JUNCTION      0.00   338.18     0  03:01           0        2.19       1.467
  YS02001633           JUNCTION    373.80   454.78     0  02:49        2.63        4.14       0.780
  YS02001649           JUNCTION      0.00   966.89     0  02:49           0        5.16       0.727
  YS02001757           JUNCTION      0.00  1885.35     0  02:51           0        9.92       0.938
  YS02001895           JUNCTION      0.00   517.44     0  03:02           0        3.09       0.163
  YS02001625           JUNCTION      0.00   338.10     0  03:01           0        2.16       1.827
  YS02163301           JUNCTION      0.00   214.81     0  02:48           0        1.54       1.583
  YS02163601           JUNCTION      0.11   454.87     0  02:49      0.0031        4.11       0.738
  YS02164001           JUNCTION      0.00   454.77     0  02:49           0        4.08       0.492
  YS02001647           JUNCTION      0.00   691.49     0  02:49           0        4.12       0.689
  YSB1154              JUNCTION     43.21    43.21     0  03:01       0.127       0.128       1.145
  YSB6556              JUNCTION      0.00    41.77     0  03:01           0       0.129       0.980
  YSB1174              JUNCTION     35.94    35.94     0  03:01      0.0924      0.0931       1.403
  YSB1171              JUNCTION      0.00    73.33     0  03:01           0       0.227       2.865
  YS02006553           JUNCTION      0.00   671.73     0  03:32           0        6.12       0.257
  YS02006561           JUNCTION      0.00   969.16     0  03:00           0        8.97       0.008
  YS02006556           JUNCTION      0.00   671.71     0  03:32           0        6.13       0.185
  YS02006558           JUNCTION    532.26   969.35     0  03:00         2.9           9       0.062
  YS02001783           JUNCTION      0.00   969.09     0  03:00           0        8.97       0.028
  YS02001784           JUNCTION      1.06   970.18     0  03:01      0.0299           9       0.043
  YS02001786           JUNCTION      0.06   970.15     0  03:01     0.00159        8.99       0.040
  YS02001788           JUNCTION      0.07   970.26     0  03:01       0.002        8.99       0.025
  YS02001790           JUNCTION      0.15   970.36     0  03:01     0.00437        8.99       0.030
  YS02001791           JUNCTION      0.00   970.53     0  03:01           0        8.99       0.016
  YS02001793           JUNCTION      0.00   970.58     0  03:01           0        8.99       0.003
  WS02004139           JUNCTION      0.32   393.28     0  00:00     0.00905        7.21       0.557
  WSC                  OUTFALL       0.00  1167.19     0  03:07           0        16.4       0.000
  3                    OUTFALL       0.00   586.86     0  03:02           0        4.44       0.000
  4                    OUTFALL       0.00   181.77     0  03:02           0       0.705       0.000
  5                    OUTFALL       0.00     0.00     0  00:00           0           0       0.000 ltr
  JK-storage           STORAGE       0.00   970.44     0  03:01           0        9.14      -3.807
  CC-storage           STORAGE       0.00  1885.34     0  02:51           0        8.83       0.522
  XR-storage           STORAGE     849.17   849.17     0  03:01        10.2        10.8      -0.237
  
  
  **********************
  Node Surcharge Summary
  **********************
  
  Surcharging occurs when water rises above the top of the highest conduit.
  ---------------------------------------------------------------------
                                               Max. Height   Min. Depth
                                   Hours       Above Crown    Below Rim
  Node                 Type      Surcharged         Meters       Meters
  ---------------------------------------------------------------------
  WS02004401           JUNCTION        0.27          0.108        1.552
  WS02004402           JUNCTION        0.31          0.110        1.630
  WS02004403           JUNCTION        0.32          0.100        1.930
  WS02004404           JUNCTION        0.62          0.152        2.628
  WS02004406           JUNCTION        0.55          0.103        2.347
  WS02004405           JUNCTION        0.59          0.133        2.667
  WS02006109           JUNCTION        3.02          0.443        1.377
  WS02006110           JUNCTION        0.78          0.200        1.650
  WS02006112           JUNCTION        1.01          0.386        1.294
  WS02006115           JUNCTION        0.11          0.050        2.200
  WS02006116           JUNCTION        0.14          0.057        2.233
  WS02006230           JUNCTION        0.60          0.308        1.262
  WS02006231           JUNCTION        0.65          0.317        1.213
  WS02006232           JUNCTION        3.03          0.420        1.060
  WS02006234           JUNCTION        0.90          0.293        0.947
  WS02006235           JUNCTION        2.03          0.308        0.982
  WS02006238           JUNCTION        2.58          0.321        1.109
  WS02006240           JUNCTION        0.87          0.195        1.195
  WS02006242           JUNCTION        2.00          0.209        0.611
  WS02006243           JUNCTION        0.28          0.081        0.689
  WS02006245           JUNCTION        0.11          0.025        0.825
  WS02006247           JUNCTION        0.09          0.016        0.744
  WS02006239           JUNCTION        1.55          0.239        1.051
  WS02006252           JUNCTION        2.56          0.193        0.907
  WS02006228           JUNCTION        2.83          0.555        1.645
  YS02001748           JUNCTION        5.04          1.179        0.011
  YS02001751           JUNCTION        5.18          1.112        0.088
  YS02001754           JUNCTION        5.34          1.011        0.139
  YS02001762           JUNCTION        5.52          1.038        0.112
  YS02001765           JUNCTION        5.49          0.983        0.117
  YS02001767           JUNCTION        5.47          0.938        0.092
  YS02001770           JUNCTION        5.46          0.889        0.031
  YS02001774           JUNCTION        5.51          0.979        0.071
  YS02001779           JUNCTION        5.33          0.680        0.000
  YS02001882           JUNCTION        1.04          0.640        0.190
  YS02001884           JUNCTION        1.07          0.674        0.196
  YS02001759           JUNCTION        5.54          1.078        0.132
  YS02001887           JUNCTION        1.15          0.762        0.188
  YS02001890           JUNCTION        1.18          0.760        0.000
  YS02001898           JUNCTION        1.00          0.538        0.202
  YS02001901           JUNCTION        1.12          0.678        0.192
  YS02001904           JUNCTION        1.10          0.639        0.211
  YS02001907           JUNCTION        1.67          0.950        0.000
  YS02001910           JUNCTION        1.23          0.790        0.310
  YS02001915           JUNCTION        1.03          0.606        0.394
  YS02001918           JUNCTION        0.79          0.301        0.509
  YS02001619           JUNCTION        5.18          0.610        0.000
  YS02001629           JUNCTION        5.18          0.470        0.000
  YS02001641           JUNCTION        5.50          0.944        0.156
  YS02001644           JUNCTION        5.50          0.920        0.000
  YS02001652           JUNCTION        5.40          1.130        0.000
  YS02001655           JUNCTION        5.19          1.200        0.000
  YS02001920           JUNCTION        0.83          0.385        0.755
  YS02001658           JUNCTION        5.07          1.300        0.000
  YS02001661           JUNCTION        0.26          1.390        0.000
  YS02001622           JUNCTION        5.21          0.620        0.000
  YS02001633           JUNCTION        5.48          0.951        0.109
  YS02001649           JUNCTION        5.52          1.050        0.000
  YS02001757           JUNCTION        5.62          1.175        0.035
  YS02001895           JUNCTION        1.01          0.567        0.183
  YS02001625           JUNCTION        5.43          0.780        0.000
  YS02163301           JUNCTION        5.46          0.902        0.128
  YS02163601           JUNCTION        5.52          1.016        0.064
  YS02164001           JUNCTION        5.49          0.944        0.156
  YS02001647           JUNCTION        5.41          0.801        0.099
  YS02006553           JUNCTION        1.72          0.969        0.221
  YS02006561           JUNCTION        0.91          0.298        0.852
  YS02006556           JUNCTION        1.42          0.890        0.460
  YS02006558           JUNCTION        1.39          0.876        0.524
  YS02001783           JUNCTION        1.50          1.517        0.083
  YS02001784           JUNCTION        1.58          1.490        0.000
  YS02001786           JUNCTION        1.50          1.239        0.191
  YS02001788           JUNCTION        1.49          1.250        0.230
  YS02001790           JUNCTION        2.29          1.157        0.000
  YS02001791           JUNCTION        2.38          0.907        1.013
  YS02001793           JUNCTION        2.45          0.974        1.626
  
  
  *********************
  Node Flooding Summary
  *********************
  
  Flooding refers to all water that overflows a node, whether it ponds or not.
  --------------------------------------------------------------------------
                                                             Total   Maximum
                                 Maximum   Time of Max       Flood    Ponded
                        Hours       Rate    Occurrence      Volume     Depth
  Node                 Flooded       LPS   days hr:min    10^6 ltr    Meters
  --------------------------------------------------------------------------
  YS02001779              2.71    398.13      0  03:25       1.154     0.000
  YS02001890              0.23    106.63      0  03:01       0.038     0.000
  YS02001907              0.66    618.91      0  03:01       0.743     0.000
  YS02001619              0.01     17.97      0  02:42       0.000     0.000
  YS02001629              0.01     32.43      0  02:42       0.000     0.000
  YS02001644              3.80   1141.03      0  03:23       6.855     0.000
  YS02001652              0.01     19.24      0  02:57       0.000     0.000
  YS02001655              0.01     91.55      0  02:41       0.000     0.000
  YS02001658              0.01    328.07      0  02:41       0.000     0.000
  YS02001661              0.01    161.66      0  02:57       0.001     0.000
  YS02001622              0.01     27.23      0  02:41       0.000     0.000
  YS02001649              0.10     46.59      0  02:57       0.006     0.000
  YS02001625              1.16    317.67      0  03:01       0.562     0.000
  YS02001784              0.01     73.15      0  02:39       0.000     0.000
  YS02001790              0.01    115.59      0  02:38       0.000     0.000
  JK-storage              2.02    884.11      0  02:50       3.113     0.000
  XR-storage              3.66    591.81      0  03:20       2.800     0.000
  
  
  **********************
  Storage Volume Summary
  **********************
  
  --------------------------------------------------------------------------------------------------
                         Average     Avg  Evap Exfil       Maximum     Max    Time of Max    Maximum
                          Volume    Pcnt  Pcnt  Pcnt        Volume    Pcnt     Occurrence    Outflow
  Storage Unit           1000 m3    Full  Loss  Loss       1000 m3    Full    days hr:min        LPS
  --------------------------------------------------------------------------------------------------
  JK-storage               0.145      50     0     0         0.291     100       0  02:39     600.00
  CC-storage               3.048      19     0     0         3.838      24       0  03:24     400.00
  XR-storage               0.778      84     0     0         0.926     100       0  03:05     380.00
  
  
  ***********************
  Outfall Loading Summary
  ***********************
  
  -----------------------------------------------------------
                         Flow       Avg       Max       Total
                         Freq      Flow      Flow      Volume
  Outfall Node           Pcnt       LPS       LPS    10^6 ltr
  -----------------------------------------------------------
  WSC                   99.99    650.79   1167.19      16.390
  3                     86.44    244.43    586.86       4.444
  4                     51.30     62.30    181.77       0.705
  5                      0.00      0.00      0.00       0.000
  -----------------------------------------------------------
  System                59.43    957.52   1882.95      21.539
  
  
  ********************
  Link Flow Summary
  ********************
  
  -----------------------------------------------------------------------------
                                 Maximum  Time of Max   Maximum    Max/    Max/
                                  |Flow|   Occurrence   |Veloc|    Full    Full
  Link                 Type          LPS  days hr:min     m/sec    Flow   Depth
  -----------------------------------------------------------------------------
  WS02003066WSF200     CONDUIT    801.65     0  03:05      2.92    0.14    0.29
  WS02006287WS02006284 CONDUIT    610.96     0  03:02      2.31    0.28    0.37
  WS02006284WS02006280 CONDUIT    611.95     0  03:02      2.55    0.26    0.35
  WS02006280WS02006229 CONDUIT    612.07     0  03:02      4.12    0.13    0.24
  WS02006229WS02006228 CONDUIT    788.61     0  03:02      1.57    2.61    1.00
  WS02006256WS02006235 CONDUIT    166.25     0  00:01      2.58    1.76    1.00
  WS02006253WS02006251 CONDUIT    133.91     0  03:01      0.53    0.40    0.93
  WS02006252WS02006251 CONDUIT    400.61     0  03:47      3.19    1.47    1.00
  WS02006251WS02006249 CONDUIT    419.73     0  03:30      1.16    1.21    0.90
  WS02006249WS02006248 CONDUIT    336.11     0  06:30      1.12    1.84    0.90
  WS02006248WS02006247 CONDUIT    332.77     0  05:30      1.11    0.72    0.96
  WS02006247WS02006245 CONDUIT    333.62     0  05:31      1.03    2.65    1.00
  WS02006245WS02006243 CONDUIT    334.57     0  05:31      1.13    0.99    1.00
  WS02006243WS02006242 CONDUIT    335.32     0  05:51      0.94    0.72    1.00
  WS02006242WS02006240 CONDUIT    336.39     0  03:50      0.90    1.34    1.00
  WS02006240WS02006239 CONDUIT    339.22     0  03:50      0.94    1.07    1.00
  WS02006239WS02006238 CONDUIT    339.79     0  03:50      0.90    1.09    1.00
  WS02006238WS02006235 CONDUIT    339.85     0  03:50      1.25    0.76    1.00
  WS02006235WS02006234 CONDUIT    394.41     0  05:01      1.03    4.16    1.00
  WS02006234WS02006232 CONDUIT    392.58     0  05:02      1.13    0.79    1.00
  WS02006232WS02006231 CONDUIT    392.52     0  05:02      1.06    0.82    1.00
  WS02006231WS02006230 CONDUIT    392.42     0  05:09      1.33    5.95    1.00
  WS02006230WS02006229 CONDUIT    402.75     0  05:09      1.05    8.96    1.00
  WS02006228WS02006109 CONDUIT    788.61     0  03:02      1.57    3.45    1.00
  WS02006116WS02004401 CONDUIT    804.79     0  03:03      1.02    1.11    1.00
  WS02006115WS02006116 CONDUIT    804.64     0  03:03      1.02    1.03    1.00
  WS02006113WS02006111 CONDUIT    786.67     0  03:02      2.58    0.94    0.76
  WS02006112WS02006115 CONDUIT    804.42     0  03:03      1.02    0.47    1.00
  WS02006111WS02006112 CONDUIT    786.72     0  03:03      1.72    0.37    0.87
  WS02006110WS02006113 CONDUIT    789.81     0  03:02      1.69    0.72    0.88
  WS02006109WS02006110 CONDUIT    789.85     0  03:02      1.57    1.52    1.00
  WS02004411WS02004412 CONDUIT    801.14     0  03:04      1.14    1.14    0.84
  WS02004401WS02004402 CONDUIT    804.84     0  03:03      1.02    0.97    1.00
  WS02004413WS02003067 CONDUIT    801.07     0  03:05      1.39    0.34    0.69
  WS02004412WS02004413 CONDUIT    800.98     0  03:05      1.07    0.54    0.90
  WS02004410WS02004411 CONDUIT    801.79     0  03:04      1.13    1.10    0.85
  WS02004409WS02004410 CONDUIT    803.05     0  03:04      1.13    1.04    0.85
  WS02004407WS02004409 CONDUIT    804.93     0  03:03      1.62    0.29    0.61
  WS02004406WS02004407 CONDUIT    805.15     0  03:03      1.41    0.36    0.68
  WS02004405WS02004406 CONDUIT    805.11     0  03:03      1.03    1.59    1.00
  WS02004404WS02004405 CONDUIT    805.05     0  03:03      1.03    7.89    1.00
  WS02004403WS02004404 CONDUIT    804.88     0  03:03      1.02    0.58    1.00
  WS02004402WS02004403 CONDUIT    804.86     0  03:03      1.02    1.16    1.00
  WS02004139WS02001211 CONDUIT    380.85     0  04:39      0.90    0.48    0.60
  WS02004138WS02004139 CONDUIT    392.96     0  00:00      3.64    0.08    0.44
  WS02003067WS02003066 CONDUIT    801.52     0  03:05      1.51    0.26    0.48
  WS02001213WS02003059 CONDUIT    389.78     0  04:38      0.90    0.64    0.82
  WS02001212WS02001213 CONDUIT    389.04     0  04:38      1.32    0.60    0.50
  WS02001211WS02001212 CONDUIT    388.72     0  04:39      0.78    0.30    0.66
  WS02003072WS02003073 CONDUIT   1165.37     0  03:06      1.87    2.52    0.54
  WS02003069WS02003072 CONDUIT   1165.33     0  03:06      1.74    0.56    0.57
  WS02003060WS02003069 CONDUIT   1165.16     0  03:05      1.96    0.46    0.52
  WS02003059WS02003060 CONDUIT    390.70     0  04:37      0.95    0.26    0.72
  HS02004901HS02004770 CONDUIT     32.24     0  03:01      0.09    0.12    0.50
  HS02004876HS02004881 CONDUIT    119.32     0  03:01      1.17    1.27    0.15
  HS02004870HS02004876 CONDUIT     96.13     0  03:01      0.79    0.06    0.17
  HS02004842HS02004848 CONDUIT     15.11     0  03:01      0.07    0.01    0.33
  HS02004837HS02004842 CONDUIT     16.10     0  03:03      0.41    0.01    0.34
  HS02004830HS02004837 CONDUIT     61.24     0  03:01      0.66    0.06    0.13
  HS02004824HS02004830 CONDUIT     60.78     0  03:01      0.63    0.08    0.15
  HS02004817HS02004824 CONDUIT    117.39     0  03:02      0.30    0.05    0.56
  HS02004770HS02004777 CONDUIT    159.99     0  03:01      0.45    0.29    0.51
  HS02004799HS02004480 CONDUIT    387.38     0  03:01      1.00    0.49    0.56
  HS02004792HS02004799 CONDUIT    353.05     0  03:01      1.12    0.22    0.45
  HS02004788HS02004792 CONDUIT    202.14     0  03:02      1.22    0.13    0.24
  HS02004785HS02004788 CONDUIT    156.68     0  03:02      0.85    1.18    0.26
  HS02004777HS02004785 CONDUIT    157.13     0  03:01      0.53    0.19    0.42
  HS02004480HS02004478 CONDUIT    456.75     0  03:01      1.47    1.92    0.44
  HS02004479HS02004480 CONDUIT     74.07     0  03:02      0.22    0.07    0.53
  HS02004862HS02004870 CONDUIT     73.11     0  03:01      0.77    0.08    0.14
  HS02004848HS02004852 CONDUIT     35.11     0  03:01      0.52    0.04    0.10
  HS02004856HS02004862 CONDUIT     51.23     0  03:01      0.58    0.05    0.13
  HS02004852HS02004856 CONDUIT     35.02     0  03:02      0.32    0.04    0.16
  HS02004802HS02004478 CONDUIT    160.68     0  03:04      0.54    0.14    0.45
  HS02004478WS02006287 CONDUIT    609.82     0  03:02      2.03    0.17    0.33
  HS02004817HS02004807 CONDUIT    120.81     0  03:04      0.24    0.07    0.73
  HS02004807HS02004802 CONDUIT    156.92     0  03:03      0.45    0.30    0.51
  YS02001759YS02001757 CONDUIT    747.60     0  02:54      0.95    0.53    1.00
  YS02001762YS02001759 CONDUIT    372.10     0  02:54      0.47    0.43    1.00
  YS02001765YS02001762 CONDUIT    372.18     0  02:54      0.47    0.35    1.00
  YS02001770YS02001767 CONDUIT    371.42     0  02:54      0.47    1.47    1.00
  YS02001774YS02001770 CONDUIT    398.15     0  03:25      0.51    0.25    1.00
  YS02001779YS02001774 CONDUIT    398.17     0  03:25      0.51    0.20    1.00
  YS02001649YS02001757 CONDUIT    966.72     0  02:49      1.23    0.59    1.00
  YS02001767YS02001765 CONDUIT    371.79     0  02:54      0.47    0.47    1.00
  YS02006561YS02001783 CONDUIT    969.09     0  03:00      2.12    0.50    1.00
  YS02001783YS02001784 CONDUIT    969.12     0  03:01      1.93    1.34    1.00
  YS02001784YS02001785 CONDUIT    970.09     0  03:01      1.93    2.26    1.00
  YS02001788YS02001790 CONDUIT    970.20     0  03:01      2.27    0.72    1.00
  YS02001790YS02001791 CONDUIT    970.53     0  03:01      2.74    1.06    1.00
  YS02001791YS02001793 CONDUIT    970.58     0  03:01      5.42    0.42    1.00
  YS02001910YS02001907 CONDUIT    542.10     0  03:01      0.69    0.31    1.00
  YS02001786YS02001788 CONDUIT    970.19     0  03:01      2.19    1.87    1.00
  YS02001915YS02001910 CONDUIT    542.08     0  03:01      0.69    0.27    1.00
  YS02001918YS02001915 CONDUIT    279.17     0  02:53      0.44    0.15    1.00
  YS02001923YS02001920 CONDUIT    275.80     0  02:53      0.72    0.12    1.00
  YS02001926YS02001923 CONDUIT    251.01     0  02:53      0.82    0.36    0.96
  YS02001929YS02001926 CONDUIT    194.29     0  02:53      0.87    0.09    0.86
  YS02001920YS02001918 CONDUIT    278.75     0  02:53      0.70    0.27    1.00
  YS02001629YS02163301 CONDUIT    214.81     0  02:48      0.27    0.26    1.00
  YS02001619YS02001622 CONDUIT    338.18     0  03:01      0.60    0.50    1.00
  YS02001622YS02001625 CONDUIT    338.10     0  03:01      0.43    0.18    1.00
  YS02001625YS02001629 CONDUIT    215.06     0  02:48      0.27    0.10    1.00
  YS02163301YS02001633 CONDUIT    215.03     0  02:48      0.27    0.20    1.00
  YS02163601YS02164001 CONDUIT    454.77     0  02:49      0.58    0.40    1.00
  YS02164001YS02001641 CONDUIT    454.51     0  02:49      0.58    0.62    1.00
  YS02001641YS02001644 CONDUIT    454.40     0  02:49      0.58    1.47    1.00
  YS02001647YS02001649 CONDUIT    691.36     0  02:49      0.88    0.37    1.00
  YS02006553YS02006556 CONDUIT    671.71     0  03:32      0.86    0.57    1.00
  YS02006556YS02006558 CONDUIT    671.96     0  03:32      0.86    0.53    1.00
  YSB6556YSB1171       CONDUIT     41.33     0  03:02      0.13    0.04    0.80
  YS02001907YS02006553 CONDUIT    671.73     0  03:32      0.75    0.79    1.00
  YS02006558YS02006561 CONDUIT    969.16     0  03:00      3.43    2.14    1.00
  YS02001633YS02163601 CONDUIT    454.76     0  02:49      0.58    0.48    1.00
  YS02001644YS02001647 CONDUIT    691.49     0  02:49      0.88    0.41    1.00
  YS02001745YS02001748 CONDUIT    514.46     0  02:44      1.48    0.20    0.94
  YS02001748YS02001751 CONDUIT    400.81     0  03:01      1.03    0.20    1.00
  YS02001751YS02001754 CONDUIT    400.78     0  03:01      0.84    0.19    1.00
  YS02001754YS02001757 CONDUIT    400.91     0  03:01      0.51    0.16    1.00
  YS02001882YS02001884 CONDUIT     32.66     0  02:41      0.08    0.04    1.00
  YS02001884YS02001887 CONDUIT     64.08     0  02:41      0.09    0.09    1.00
  YS02001890YS02001895 CONDUIT    517.44     0  03:02      0.66    0.24    1.00
  YS02001895YS02001898 CONDUIT    517.45     0  03:02      0.66    0.90    1.00
  YS02001898YS02001901 CONDUIT    517.47     0  03:02      0.66    0.33    1.00
  YS02001901YS02001904 CONDUIT    517.38     0  03:02      0.66    0.80    1.00
  YS02001904YS02001907 CONDUIT    517.56     0  03:02      0.66    0.18    1.00
  YS02001887YS02001890 CONDUIT    623.24     0  03:01      0.79    1.07    1.00
  YS02001652YS02001649 CONDUIT    485.79     0  03:01      0.62    0.24    1.00
  YS02001655YS02001652 CONDUIT    485.62     0  03:01      0.89    0.24    1.00
  YS02001658YS02001655 CONDUIT    485.80     0  03:01      1.18    0.21    1.00
  YS02001661YS02001658 CONDUIT    657.66     0  02:41      1.56    0.26    1.00
  YS02001664YS02001661 CONDUIT    740.81     0  03:03      1.52    0.23    0.72
  YSB1154YSB6556       CONDUIT     41.77     0  03:01      0.19    0.08    0.69
  YSB1174YSB1171       CONDUIT     34.49     0  03:01      0.10    0.05    0.81
  YSB1171HS02004479    CONDUIT     72.19     0  03:02      0.54    0.05    0.65
  HS02004881HS02006253 CONDUIT    131.62     0  03:01      1.89    0.03    0.26
  YS02001793JiankangQianchi CONDUIT    970.44     0  03:01     11.71    0.08    1.00
  YS02001757CaochengTiaoxuchi CONDUIT   1885.34     0  02:51      2.59    0.83    1.00
  WSF200WS02003060     CONDUIT    801.91     0  03:05      1.88    0.18    0.41
  1                    CONDUIT   1167.19     0  03:07      3.47    0.41    0.44
  2                    CONDUIT    181.77     0  03:02      5.70    0.44    0.46
  3                    CONDUIT    586.86     0  03:02     10.01    0.93    0.77
  4                    CONDUIT      0.00     0  00:00      0.00    0.00    0.00
  CC-Pump-1            PUMP       200.00     0  03:00              1.00
  CC-Pump-2            PUMP       200.00     0  02:40              1.00
  JK-Pump-1            PUMP       300.00     0  00:00              1.00
  JK-Pump-2            PUMP       300.00     0  03:00              1.00
  XR-Pump-1            PUMP        95.00     0  00:00              1.00
  XR-Pump-2            PUMP        95.00     0  00:00              1.00
  XR-Pump-3            PUMP        95.00     0  00:00              1.00
  XR-Pump-4            PUMP        95.00     0  00:00              1.00
  
  
  ***************************
  Flow Classification Summary
  ***************************
  
  -------------------------------------------------------------------------------------
                      Adjusted    ---------- Fraction of Time in Flow Class ---------- 
                       /Actual         Up    Down  Sub   Sup   Up    Down  Norm  Inlet 
  Conduit               Length    Dry  Dry   Dry   Crit  Crit  Crit  Crit  Ltd   Ctrl  
  -------------------------------------------------------------------------------------
  WS02003066WSF200        1.00   0.02  0.03  0.00  0.00  0.95  0.00  0.00  0.63  0.00
  WS02006287WS02006284    1.00   0.04  0.01  0.00  0.60  0.35  0.00  0.00  0.67  0.00
  WS02006284WS02006280    1.00   0.04  0.00  0.00  0.00  0.00  0.00  0.96  0.00  0.00
  WS02006280WS02006229    1.00   0.04  0.00  0.00  0.00  0.00  0.00  0.96  0.00  0.00
  WS02006229WS02006228    1.00   0.00  0.00  0.00  0.99  0.00  0.00  0.01  0.00  0.00
  WS02006256WS02006235    1.00   0.00  0.00  0.00  1.00  0.00  0.00  0.00  0.00  0.00
  WS02006253WS02006251    1.00   0.03  0.01  0.00  0.96  0.00  0.00  0.00  0.00  0.00
  WS02006252WS02006251    1.00   0.07  0.00  0.00  0.00  0.00  0.93  0.00  0.00  0.00
  WS02006251WS02006249    1.00   0.00  0.00  0.00  1.00  0.00  0.00  0.00  0.26  0.00
  WS02006249WS02006248    1.00   0.00  0.02  0.00  0.90  0.00  0.08  0.00  0.00  0.00
  WS02006248WS02006247    1.00   0.02  0.00  0.00  0.98  0.00  0.00  0.00  0.14  0.00
  WS02006247WS02006245    1.00   0.02  0.00  0.00  0.98  0.00  0.00  0.00  0.00  0.00
  WS02006245WS02006243    1.00   0.01  0.00  0.00  0.95  0.00  0.00  0.03  0.01  0.00
  WS02006243WS02006242    1.00   0.01  0.00  0.00  0.99  0.00  0.00  0.00  0.21  0.00
  WS02006242WS02006240    1.00   0.00  0.00  0.00  1.00  0.00  0.00  0.00  0.00  0.00
  WS02006240WS02006239    1.00   0.00  0.00  0.00  0.97  0.00  0.00  0.03  0.01  0.00
  WS02006239WS02006238    1.00   0.00  0.00  0.00  1.00  0.00  0.00  0.00  0.00  0.00
  WS02006238WS02006235    1.00   0.00  0.00  0.00  1.00  0.00  0.00  0.00  0.00  0.00
  WS02006235WS02006234    1.00   0.00  0.00  0.00  0.96  0.00  0.04  0.00  0.00  0.00
  WS02006234WS02006232    1.00   0.00  0.00  0.00  1.00  0.00  0.00  0.00  0.04  0.00
  WS02006232WS02006231    1.00   0.00  0.00  0.00  0.99  0.00  0.00  0.00  0.00  0.00
  WS02006231WS02006230    1.00   0.00  0.00  0.00  0.78  0.00  0.22  0.00  0.00  0.00
  WS02006230WS02006229    1.00   0.00  0.00  0.00  0.99  0.00  0.00  0.01  0.00  0.00
  WS02006228WS02006109    1.00   0.00  0.00  0.00  1.00  0.00  0.00  0.00  0.00  0.00
  WS02006116WS02004401    1.00   0.02  0.00  0.00  0.98  0.00  0.00  0.00  0.00  0.00
  WS02006115WS02006116    1.00   0.02  0.00  0.00  0.97  0.00  0.00  0.01  0.00  0.00
  WS02006113WS02006111    1.00   0.02  0.00  0.00  0.03  0.95  0.00  0.00  0.09  0.00
  WS02006112WS02006115    1.00   0.02  0.00  0.00  0.98  0.00  0.00  0.00  0.00  0.00
  WS02006111WS02006112    1.00   0.02  0.00  0.00  0.98  0.00  0.00  0.00  0.90  0.00
  WS02006110WS02006113    1.00   0.01  0.01  0.00  0.98  0.00  0.00  0.00  0.00  0.00
  WS02006109WS02006110    1.00   0.00  0.01  0.00  0.98  0.00  0.01  0.00  0.00  0.00
  WS02004411WS02004412    1.00   0.04  0.00  0.00  0.96  0.00  0.00  0.00  0.00  0.00
  WS02004401WS02004402    1.00   0.02  0.00  0.00  0.98  0.00  0.00  0.00  0.00  0.00
  WS02004413WS02003067    1.00   0.04  0.01  0.00  0.00  0.00  0.95  0.00  0.00  0.00
  WS02004412WS02004413    1.00   0.04  0.00  0.00  0.96  0.00  0.00  0.00  0.03  0.00
  WS02004410WS02004411    1.00   0.03  0.00  0.00  0.97  0.00  0.00  0.00  0.03  0.00
  WS02004409WS02004410    1.00   0.03  0.00  0.00  0.97  0.00  0.00  0.00  0.03  0.00
  WS02004407WS02004409    1.00   0.03  0.00  0.00  0.96  0.00  0.00  0.00  0.89  0.00
  WS02004406WS02004407    1.00   0.00  0.03  0.00  0.97  0.00  0.00  0.00  0.00  0.00
  WS02004405WS02004406    1.00   0.00  0.00  0.00  1.00  0.00  0.00  0.00  0.01  0.00
  WS02004404WS02004405    1.00   0.00  0.00  0.00  1.00  0.00  0.00  0.00  0.00  0.00
  WS02004403WS02004404    1.00   0.00  0.02  0.00  0.98  0.00  0.00  0.00  0.01  0.00
  WS02004402WS02004403    1.00   0.02  0.00  0.00  0.98  0.00  0.00  0.00  0.00  0.00
  WS02004139WS02001211    1.00   0.00  0.00  0.00  1.00  0.00  0.00  0.00  0.00  0.00
  WS02004138WS02004139    1.00   0.00  0.00  0.00  0.99  0.01  0.00  0.00  1.00  0.00
  WS02003067WS02003066    1.00   0.05  0.00  0.00  0.95  0.00  0.00  0.00  0.00  0.00
  WS02001213WS02003059    1.00   0.00  0.00  0.00  0.99  0.00  0.00  0.00  0.00  0.00
  WS02001212WS02001213    1.00   0.00  0.00  0.00  0.87  0.00  0.13  0.00  0.00  0.00
  WS02001211WS02001212    1.00   0.00  0.00  0.00  1.00  0.00  0.00  0.00  0.00  0.00
  WS02003072WS02003073    1.00   0.00  0.00  0.00  0.00  0.00  0.00  1.00  0.00  0.00
  WS02003069WS02003072    1.00   0.00  0.00  0.00  0.99  0.01  0.00  0.00  0.18  0.00
  WS02003060WS02003069    1.00   0.00  0.00  0.00  0.98  0.02  0.00  0.00  0.12  0.00
  WS02003059WS02003060    1.00   0.00  0.00  0.00  1.00  0.00  0.00  0.00  0.01  0.00
  HS02004901HS02004770    1.00   0.04  0.00  0.00  0.96  0.00  0.00  0.00  0.01  0.00
  HS02004876HS02004881    1.00   0.02  0.00  0.00  0.87  0.11  0.00  0.00  0.00  0.00
  HS02004870HS02004876    1.00   0.00  0.00  0.00  0.99  0.00  0.00  0.00  0.95  0.00
  HS02004842HS02004848    1.00   0.00  0.04  0.00  0.96  0.00  0.00  0.00  0.58  0.00
  HS02004837HS02004842    1.00   0.00  0.00  0.00  0.99  0.01  0.00  0.00  0.11  0.00
  HS02004830HS02004837    1.00   0.00  0.00  0.00  1.00  0.00  0.00  0.00  0.99  0.00
  HS02004824HS02004830    1.00   0.00  0.00  0.00  1.00  0.00  0.00  0.00  0.01  0.00
  HS02004817HS02004824    1.00   0.00  0.00  0.00  1.00  0.00  0.00  0.00  0.98  0.00
  HS02004770HS02004777    1.00   0.00  0.04  0.00  0.96  0.00  0.00  0.00  0.04  0.00
  HS02004799HS02004480    1.00   0.00  0.02  0.00  0.95  0.00  0.02  0.00  0.00  0.00
  HS02004792HS02004799    1.00   0.00  0.00  0.00  0.99  0.01  0.00  0.00  0.98  0.00
  HS02004788HS02004792    1.00   0.00  0.00  0.00  0.99  0.01  0.00  0.00  0.98  0.00
  HS02004785HS02004788    1.00   0.00  0.00  0.00  1.00  0.00  0.00  0.00  0.00  0.00
  HS02004777HS02004785    1.00   0.00  0.00  0.00  1.00  0.00  0.00  0.00  0.15  0.00
  HS02004480HS02004478    1.00   0.04  0.00  0.00  0.68  0.00  0.00  0.28  0.00  0.00
  HS02004479HS02004480    1.00   0.03  0.00  0.00  0.97  0.00  0.00  0.00  0.13  0.00
  HS02004862HS02004870    1.00   0.00  0.00  0.00  1.00  0.00  0.00  0.00  0.06  0.00
  HS02004848HS02004852    1.00   0.04  0.00  0.00  0.96  0.00  0.00  0.00  0.64  0.00
  HS02004856HS02004862    1.00   0.00  0.05  0.00  0.95  0.00  0.00  0.00  0.79  0.00
  HS02004852HS02004856    1.00   0.04  0.00  0.00  0.96  0.00  0.00  0.00  0.81  0.00
  HS02004802HS02004478    1.00   0.04  0.00  0.00  0.96  0.00  0.00  0.00  0.03  0.00
  HS02004478WS02006287    1.00   0.05  0.00  0.00  0.74  0.22  0.00  0.00  0.66  0.00
  HS02004817HS02004807    1.00   0.00  0.04  0.00  0.96  0.00  0.00  0.00  0.01  0.00
  HS02004807HS02004802    1.00   0.04  0.00  0.00  0.96  0.00  0.00  0.00  0.00  0.00
  YS02001759YS02001757    1.00   0.00  0.00  0.00  1.00  0.00  0.00  0.00  0.17  0.00
  YS02001762YS02001759    1.00   0.00  0.00  0.00  1.00  0.00  0.00  0.00  0.04  0.00
  YS02001765YS02001762    1.00   0.00  0.00  0.00  1.00  0.00  0.00  0.00  0.17  0.00
  YS02001770YS02001767    1.00   0.00  0.00  0.00  1.00  0.00  0.00  0.00  0.00  0.00
  YS02001774YS02001770    1.00   0.00  0.04  0.00  0.96  0.00  0.00  0.00  0.04  0.00
  YS02001779YS02001774    1.00   0.00  0.00  0.00  1.00  0.00  0.00  0.00  0.22  0.00
  YS02001649YS02001757    1.00   0.00  0.00  0.00  1.00  0.00  0.00  0.00  0.17  0.00
  YS02001767YS02001765    1.00   0.00  0.00  0.00  1.00  0.00  0.00  0.00  0.01  0.00
  YS02006561YS02001783    1.00   0.05  0.00  0.00  0.37  0.57  0.00  0.00  0.52  0.00
  YS02001783YS02001784    1.00   0.00  0.05  0.00  0.95  0.00  0.00  0.00  0.01  0.00
  YS02001784YS02001785    1.00   0.00  0.00  0.00  1.00  0.00  0.00  0.00  0.21  0.00
  YS02001788YS02001790    1.00   0.00  0.00  0.00  0.45  0.55  0.00  0.00  0.46  0.00
  YS02001790YS02001791    1.00   0.00  0.00  0.00  0.41  0.59  0.00  0.00  0.44  0.00
  YS02001791YS02001793    1.00   0.00  0.00  0.00  0.41  0.59  0.00  0.00  0.01  0.00
  YS02001910YS02001907    1.00   0.00  0.00  0.00  0.98  0.00  0.00  0.02  0.13  0.00
  YS02001786YS02001788    1.00   0.00  0.00  0.00  0.44  0.56  0.00  0.00  0.00  0.00
  YS02001915YS02001910    1.00   0.00  0.00  0.00  0.99  0.01  0.00  0.00  0.19  0.00
  YS02001918YS02001915    1.00   0.00  0.01  0.00  0.98  0.01  0.00  0.00  0.56  0.00
  YS02001923YS02001920    1.00   0.00  0.00  0.00  1.00  0.00  0.00  0.00  0.83  0.00
  YS02001926YS02001923    1.00   0.00  0.03  0.00  0.18  0.00  0.79  0.00  0.00  0.00
  YS02001929YS02001926    1.00   0.00  0.04  0.00  0.96  0.00  0.00  0.00  0.75  0.00
  YS02001920YS02001918    1.00   0.00  0.01  0.00  0.99  0.00  0.00  0.00  0.00  0.00
  YS02001629YS02163301    1.00   0.05  0.00  0.00  0.95  0.00  0.00  0.00  0.00  0.00
  YS02001619YS02001622    1.00   0.04  0.00  0.00  0.96  0.00  0.00  0.00  0.00  0.00
  YS02001622YS02001625    1.00   0.04  0.00  0.00  0.96  0.00  0.00  0.00  0.08  0.00
  YS02001625YS02001629    1.00   0.04  0.02  0.00  0.93  0.00  0.02  0.00  0.00  0.00
  YS02163301YS02001633    1.00   0.00  0.05  0.00  0.95  0.00  0.00  0.00  0.00  0.00
  YS02163601YS02164001    1.00   0.00  0.03  0.00  0.97  0.00  0.00  0.00  0.00  0.00
  YS02164001YS02001641    1.00   0.01  0.02  0.00  0.97  0.00  0.00  0.00  0.06  0.00
  YS02001641YS02001644    1.00   0.00  0.01  0.00  0.99  0.00  0.00  0.00  0.00  0.00
  YS02001647YS02001649    1.00   0.00  0.05  0.00  0.95  0.00  0.00  0.00  0.01  0.00
  YS02006553YS02006556    1.00   0.01  0.00  0.00  0.99  0.00  0.00  0.00  0.03  0.00
  YS02006556YS02006558    1.00   0.00  0.00  0.00  1.00  0.00  0.00  0.00  0.00  0.00
  YSB6556YSB1171          1.00   0.03  0.01  0.00  0.96  0.00  0.00  0.00  0.00  0.00
  YS02001907YS02006553    1.00   0.00  0.02  0.00  0.98  0.00  0.00  0.00  0.00  0.00
  YS02006558YS02006561    1.00   0.05  0.00  0.00  0.21  0.73  0.00  0.00  0.44  0.00
  YS02001633YS02163601    1.00   0.00  0.01  0.00  0.99  0.00  0.00  0.00  0.16  0.00
  YS02001644YS02001647    1.00   0.00  0.05  0.00  0.95  0.00  0.00  0.00  0.00  0.00
  YS02001745YS02001748    1.00   0.00  0.00  0.00  0.89  0.01  0.00  0.10  0.04  0.00
  YS02001748YS02001751    1.00   0.00  0.00  0.00  0.97  0.03  0.00  0.00  0.15  0.00
  YS02001751YS02001754    1.00   0.00  0.00  0.00  0.94  0.00  0.00  0.06  0.02  0.00
  YS02001754YS02001757    1.00   0.00  0.00  0.00  0.99  0.01  0.00  0.00  0.21  0.00
  YS02001882YS02001884    1.00   0.04  0.00  0.00  0.95  0.00  0.00  0.00  0.00  0.00
  YS02001884YS02001887    1.00   0.03  0.01  0.00  0.96  0.00  0.00  0.00  0.00  0.00
  YS02001890YS02001895    1.00   0.00  0.04  0.00  0.95  0.00  0.00  0.00  0.00  0.00
  YS02001895YS02001898    1.00   0.05  0.00  0.00  0.94  0.00  0.01  0.00  0.00  0.00
  YS02001898YS02001901    1.00   0.05  0.00  0.00  0.95  0.00  0.00  0.00  0.03  0.00
  YS02001901YS02001904    1.00   0.05  0.00  0.00  0.95  0.00  0.00  0.00  0.00  0.00
  YS02001904YS02001907    1.00   0.00  0.05  0.00  0.95  0.00  0.00  0.00  0.00  0.00
  YS02001887YS02001890    1.00   0.00  0.00  0.00  0.98  0.00  0.02  0.00  0.00  0.00
  YS02001652YS02001649    1.00   0.00  0.00  0.00  1.00  0.00  0.00  0.00  0.19  0.00
  YS02001655YS02001652    1.00   0.00  0.00  0.00  0.94  0.00  0.00  0.06  0.03  0.00
  YS02001658YS02001655    1.00   0.00  0.04  0.00  0.93  0.03  0.00  0.00  0.13  0.00
  YS02001661YS02001658    1.00   0.04  0.00  0.00  0.89  0.07  0.00  0.00  0.07  0.00
  YS02001664YS02001661    1.00   0.04  0.00  0.00  0.89  0.07  0.00  0.00  0.22  0.00
  YSB1154YSB6556          1.00   0.04  0.00  0.00  0.96  0.00  0.00  0.00  0.02  0.00
  YSB1174YSB1171          1.00   0.03  0.01  0.00  0.97  0.00  0.00  0.00  0.00  0.00
  YSB1171HS02004479       1.00   0.03  0.00  0.00  0.97  0.00  0.00  0.00  0.11  0.00
  HS02004881HS02006253    1.00   0.03  0.00  0.00  0.82  0.01  0.00  0.14  0.66  0.00
  YS02001793JiankangQianchi    1.00   0.00  0.00  0.00  0.70  0.30  0.00  0.00  0.27  0.00
  YS02001757CaochengTiaoxuchi    1.00   0.00  0.07  0.00  0.93  0.00  0.00  0.00  0.00  0.00
  WSF200WS02003060        1.00   0.00  0.02  0.00  0.68  0.30  0.00  0.00  0.23  0.00
  1                       1.00   0.00  0.00  0.00  0.00  1.00  0.00  0.00  0.34  0.00
  2                       1.00   0.48  0.00  0.00  0.00  0.52  0.00  0.00  0.09  0.00
  3                       1.00   0.14  0.00  0.00  0.00  0.86  0.00  0.00  0.27  0.00
  4                       1.00   1.00  0.00  0.00  0.00  0.00  0.00  0.00  0.00  0.00
  
  
  *************************
  Conduit Surcharge Summary
  *************************
  
  ----------------------------------------------------------------------------
                                                           Hours        Hours 
                         --------- Hours Full --------   Above Full   Capacity
  Conduit                Both Ends  Upstream  Dnstream   Normal Flow   Limited
  ----------------------------------------------------------------------------
  WS02006229WS02006228        2.83      3.20      2.83      5.18         2.83
  WS02006256WS02006235        6.04      6.05      7.62      2.20         0.01
  WS02006252WS02006251        1.45      1.45      2.56      2.27         0.01
  WS02006251WS02006249        0.01      0.01      0.01      1.43         0.01
  WS02006249WS02006248        0.01      0.01      0.01      4.88         0.01
  WS02006248WS02006247        0.01      0.01      0.09      0.01         0.01
  WS02006247WS02006245        0.11      0.13      0.11      5.18         0.11
  WS02006245WS02006243        0.15      0.15      0.28      0.01         0.01
  WS02006243WS02006242        0.31      0.31      2.00      0.01         0.01
  WS02006242WS02006240        0.87      0.87      2.63      2.64         0.01
  WS02006240WS02006239        1.35      1.35      1.55      0.10         0.01
  WS02006239WS02006238        2.40      2.40      2.58      0.13         0.05
  WS02006238WS02006235        2.37      2.37      2.94      0.01         0.01
  WS02006235WS02006234        0.90      0.90      2.03      6.07         0.01
  WS02006234WS02006232        1.53      1.53      3.03      0.01         0.01
  WS02006232WS02006231        0.65      0.65      3.03      0.01         0.01
  WS02006231WS02006230        0.60      0.60      0.68      6.06         0.01
  WS02006230WS02006229        4.22      4.96      4.22      6.17         4.22
  WS02006228WS02006109        3.02      3.76      3.02      5.62         3.02
  WS02006116WS02004401        0.26      0.26      0.27      0.21         0.21
  WS02006115WS02006116        0.14      0.14      0.14      0.08         0.09
  WS02006112WS02006115        0.11      0.11      1.01      0.01         0.01
  WS02006111WS02006112        0.01      0.01      5.31      0.01         0.01
  WS02006110WS02006113        0.01      0.01      3.43      0.01         0.01
  WS02006109WS02006110        0.78      0.78      3.76      0.79         0.01
  WS02004411WS02004412        0.01      0.01      0.01      0.25         0.01
  WS02004401WS02004402        0.27      0.27      0.31      0.01         0.01
  WS02004410WS02004411        0.01      0.01      0.01      0.19         0.01
  WS02004409WS02004410        0.01      0.01      0.01      0.09         0.01
  WS02004406WS02004407        0.01      0.01      0.55      0.01         0.01
  WS02004405WS02004406        0.55      0.59      0.55      0.85         0.55
  WS02004404WS02004405        0.59      0.62      0.59      5.90         0.59
  WS02004403WS02004404        0.32      0.32      0.62      0.01         0.01
  WS02004402WS02004403        0.31      0.31      0.32      0.26         0.26
  WS02003072WS02003073        0.01      0.01      0.01      5.38         0.01
  HS02004876HS02004881        0.01      0.01      0.01      0.17         0.01
  HS02004785HS02004788        0.01      0.01      0.01      0.10         0.01
  HS02004480HS02004478        0.01      0.01      0.01      0.52         0.01
  YS02001759YS02001757        5.54      5.54      5.62      0.01         0.01
  YS02001762YS02001759        5.52      5.52      5.54      0.01         0.01
  YS02001765YS02001762        5.49      5.49      5.52      0.01         0.01
  YS02001770YS02001767        5.47      5.47      5.47      0.28         0.81
  YS02001774YS02001770        5.46      5.46      5.51      0.01         0.01
  YS02001779YS02001774        5.33      5.33      5.51      0.01         0.01
  YS02001649YS02001757        5.52      5.52      5.62      0.01         0.01
  YS02001767YS02001765        5.47      5.47      5.49      0.01         0.01
  YS02006561YS02001783        0.91      0.91      1.50      0.01         0.01
  YS02001783YS02001784        1.50      1.50      1.58      1.30         1.23
  YS02001784YS02001785        1.50      1.58      1.50      2.28         1.50
  YS02001788YS02001790        1.49      1.49      2.29      0.01         0.01
  YS02001790YS02001791        2.29      2.29      2.38      0.76         0.75
  YS02001791YS02001793        2.38      2.38      2.47      0.01         0.01
  YS02001910YS02001907        1.23      1.23      1.67      0.01         0.01
  YS02001786YS02001788        1.49      1.50      1.49      1.87         1.49
  YS02001915YS02001910        1.03      1.03      1.23      0.01         0.01
  YS02001918YS02001915        0.79      0.79      1.03      0.01         0.01
  YS02001923YS02001920        0.63      0.63      0.83      0.01         0.01
  YS02001920YS02001918        0.79      0.79      0.83      0.01         0.01
  YS02001629YS02163301        5.45      5.45      5.46      0.01         0.01
  YS02001619YS02001622        5.18      5.18      5.21      0.01         0.01
  YS02001622YS02001625        5.21      5.21      5.43      0.01         0.01
  YS02001625YS02001629        5.18      5.18      5.43      0.01         0.01
  YS02163301YS02001633        5.46      5.46      5.49      0.01         0.01
  YS02163601YS02164001        5.49      5.49      5.52      0.01         0.01
  YS02164001YS02001641        5.49      5.49      5.50      0.01         0.02
  YS02001641YS02001644        5.50      5.50      5.50      1.47         1.52
  YS02001647YS02001649        5.41      5.41      5.52      0.01         0.01
  YS02006553YS02006556        1.42      1.42      1.72      0.01         0.01
  YS02006556YS02006558        1.56      1.56      1.78      0.01         0.01
  YS02001907YS02006553        2.24      2.24      2.45      0.01         0.01
  YS02006558YS02006561        1.12      1.39      1.12      2.09         1.12
  YS02001633YS02163601        5.48      5.48      5.52      0.01         0.01
  YS02001644YS02001647        5.41      5.41      5.50      0.01         0.01
  YS02001745YS02001748        0.01      0.01      5.04      0.01         0.01
  YS02001748YS02001751        5.08      5.08      5.18      0.01         0.01
  YS02001751YS02001754        5.18      5.18      5.34      0.01         0.01
  YS02001754YS02001757        5.41      5.41      5.62      0.01         0.01
  YS02001882YS02001884        1.04      1.04      1.07      0.01         0.01
  YS02001884YS02001887        1.12      1.12      1.15      0.01         0.01
  YS02001890YS02001895        1.01      1.01      1.25      0.01         0.01
  YS02001895YS02001898        1.00      1.00      1.01      0.01         0.01
  YS02001898YS02001901        1.02      1.02      1.12      0.01         0.01
  YS02001901YS02001904        1.10      1.10      1.12      0.01         0.01
  YS02001904YS02001907        1.10      1.10      1.74      0.01         0.01
  YS02001887YS02001890        1.18      1.18      1.21      0.07         0.01
  YS02001652YS02001649        5.42      5.42      5.52      0.01         0.01
  YS02001655YS02001652        5.19      5.19      5.40      0.01         0.01
  YS02001658YS02001655        5.07      5.07      5.19      0.01         0.01
  YS02001661YS02001658        0.24      0.24      5.07      0.01         0.01
  YS02001664YS02001661        0.01      0.01      1.17      0.01         0.01
  YS02001793JiankangQianchi        2.45      2.45      3.69      0.01         0.01
  YS02001757CaochengTiaoxuchi        4.87      4.87      5.62      0.01         0.01
  
  
  ***************
  Pumping Summary
  ***************
  
  ---------------------------------------------------------------------------------------------------------
                                                  Min       Avg       Max     Total     Power    % Time Off
                        Percent   Number of      Flow      Flow      Flow    Volume     Usage    Pump Curve
  Pump                 Utilized   Start-Ups       LPS       LPS       LPS  10^6 ltr     Kw-hr    Low   High
  ---------------------------------------------------------------------------------------------------------
  CC-Pump-1               65.90           5      0.00    147.80    200.00     2.735      3.39    0.0    7.5
  CC-Pump-2               59.52           5      0.00    144.13    200.00     2.435      3.17    0.0    4.8
  JK-Pump-1               85.09           7      0.00    180.86    300.00     3.404     36.38    0.0    0.0
  JK-Pump-2               82.95           8      0.00    169.07    300.00     2.921     28.61    0.0    0.0
  XR-Pump-1               91.48           5      0.00     80.01     95.00     2.052     22.75    0.0    0.0
  XR-Pump-2               87.23          10      0.00     62.83     95.00     1.568     16.55    0.0    0.0
  XR-Pump-3               91.47           9      0.00     65.06     95.00     1.767     19.87    0.0    0.0
  XR-Pump-4               87.22           7      0.00     70.43     95.00     1.824     22.27    0.0    0.0
  

  Analysis begun on:  Fri Dec 24 20:10:16 2021
  Analysis ended on:  Fri Dec 24 20:10:20 2021
  Total elapsed time: 00:00:04