
  EPA STORM WATER MANAGEMENT MODEL - VERSION 5.1 (Build 5.3.0.dev0)
  --------------------------------------------------------------

  WARNING 04: minimum elevation drop used for Conduit WS02004404WS02004405
  WARNING 03: negative offset ignored for Link YS02001904YS02001907
  
  *********************************************************
  NOTE: The summary statistics displayed in this report are
  based on results found at every computational time step,  
  not just on results from each reporting time step.
  *********************************************************
  
  ****************
  Analysis Options
  ****************
  Flow Units ............... LPS
  Process Models:
    Rainfall/Runoff ........ YES
    RDII ................... NO
    Snowmelt ............... NO
    Groundwater ............ NO
    Flow Routing ........... YES
    Ponding Allowed ........ NO
    Water Quality .......... NO
  Infiltration Method ...... HORTON
  Flow Routing Method ...... DYNWAVE
  Surcharge Method ......... EXTRAN
  Starting Date ............ 08/28/2015 08:00:00
  Ending Date .............. 08/28/2015 15:50:00
  Antecedent Dry Days ...... 8.0
  Report Time Step ......... 00:01:00
  Wet Time Step ............ 00:01:00
  Dry Time Step ............ 00:01:00
  Routing Time Step ........ 5.00 sec
  Variable Time Step ....... YES
  Maximum Trials ........... 8
  Number of Threads ........ 4
  Head Tolerance ........... 0.001500 m
  
  
  **************************        Volume         Depth
  Runoff Quantity Continuity     hectare-m            mm
  **************************     ---------       -------
  Total Precipitation ......         6.144        13.452
  Evaporation Loss .........         0.000         0.000
  Infiltration Loss ........         1.572         3.442
  Surface Runoff ...........         3.480         7.619
  Final Storage ............         1.093         2.393
  Continuity Error (%) .....        -0.016
  
  
  **************************        Volume        Volume
  Flow Routing Continuity        hectare-m      10^6 ltr
  **************************     ---------     ---------
  Dry Weather Inflow .......         0.616         6.165
  Wet Weather Inflow .......         3.479        34.788
  Groundwater Inflow .......         0.000         0.000
  RDII Inflow ..............         0.000         0.000
  External Inflow ..........         0.102         1.024
  External Outflow .........         2.057        20.570
  Flooding Loss ............         1.644        16.435
  Evaporation Loss .........         0.000         0.000
  Exfiltration Loss ........         0.000         0.000
  Initial Stored Volume ....         0.076         0.761
  Final Stored Volume ......         0.628         6.279
  Continuity Error (%) .....        -1.282
  
  
  *************************
  Highest Continuity Errors
  *************************
  Node HS02004842 (15.27%)
  Node YS02001884 (11.68%)
  Node JK-storage (-5.48%)
  Node YSB1171 (2.79%)
  Node HS02004817 (2.78%)
  
  
  ***************************
  Time-Step Critical Elements
  ***************************
  Link WS02006252WS02006251 (46.80%)
  Link 3 (43.08%)
  Link WS02006238WS02006235 (3.85%)
  Link WS02006280WS02006229 (1.40%)
  
  
  ********************************
  Highest Flow Instability Indexes
  ********************************
  Link YS02163601YS02164001 (43)
  Link YS02001619YS02001622 (43)
  Link YS02163301YS02001633 (42)
  Link YS02001629YS02163301 (42)
  Link YS02164001YS02001641 (39)
  
  
  *************************
  Routing Time Step Summary
  *************************
  Minimum Time Step           :     0.50 sec
  Average Time Step           :     0.78 sec
  Maximum Time Step           :     5.00 sec
  Percent in Steady State     :    -0.00
  Average Iterations per Step :     4.70
  Percent Not Converging      :    21.92
  
  
  ***************************
  Subcatchment Runoff Summary
  ***************************
  
  ------------------------------------------------------------------------------------------------------------------------------
                            Total      Total      Total      Total     Imperv       Perv      Total       Total     Peak  Runoff
                           Precip      Runon       Evap      Infil     Runoff     Runoff     Runoff      Runoff   Runoff   Coeff
  Subcatchment                 mm         mm         mm         mm         mm         mm         mm    10^6 ltr      LPS
  ------------------------------------------------------------------------------------------------------------------------------
  sub0                      13.45       0.00       0.00       0.89      11.25       0.05      11.30        0.01     3.67   0.840
  sub1                      13.45       0.00       0.00       1.45      10.71       0.03      10.74        0.07    24.31   0.799
  sub2                      13.45       0.00       0.00       4.95       7.56       0.02       7.58        0.07    22.93   0.564
  sub3                      13.45       0.00       0.00       4.96       7.52       0.02       7.54        0.17    51.30   0.560
  sub4                      13.45       0.00       0.00       1.46      10.54       0.02      10.56        0.22    61.94   0.785
  sub5                      13.45       0.00       0.00       0.91      11.19       0.03      11.22        0.13    43.21   0.834
  sub7                      13.45       0.00       0.00       1.17      10.98       0.04      11.03        0.04    13.69   0.820
  sub8                      13.45       0.00       0.00       1.17      10.97       0.04      11.01        0.07    25.15   0.819
  sub9                      13.45       0.00       0.00       1.17      10.97       0.04      11.01        0.05    18.81   0.818
  sub10                     13.45       0.00       0.00       1.04      11.08       0.03      11.11        0.12    42.29   0.826
  sub11                     13.45       0.00       0.00       1.04      11.10       0.04      11.14        0.13    46.68   0.828
  sub12                     13.45       0.00       0.00       1.69      10.51       0.06      10.58        0.09    35.94   0.786
  sub14                     13.45       0.00       0.00       1.17      10.97       0.04      11.01        0.10    37.02   0.818
  sub15                     13.45       0.00       0.00       4.00       8.43       0.04       8.47        0.15    51.03   0.630
  sub16                     13.45       0.00       0.00       4.38       8.09       0.06       8.15        0.09    32.58   0.606
  sub17                     13.45       0.00       0.00       4.25       8.21       0.06       8.27        0.07    26.73   0.615
  sub22                     13.45       0.00       0.00       5.74       6.88       0.04       6.92        0.44   159.06   0.514
  sub23                     13.45       0.00       0.00       4.93       7.60       0.05       7.65        0.36   133.95   0.569
  sub60                     13.45       0.00       0.00       1.61       8.73       0.00       8.74        2.65   387.96   0.649
  sub61                     13.45       0.00       0.00       2.28       8.88       0.00       8.88        2.74   483.52   0.660
  sub62                     13.45       0.00       0.00       1.07       9.65       0.00       9.66        2.97   496.42   0.718
  sub63                     13.45       0.00       0.00       3.90       7.77       0.00       7.77        2.35   446.68   0.578
  sub64                     13.45       0.00       0.00       2.01       8.38       0.00       8.38        2.55   368.35   0.623
  sub65                     13.45       0.00       0.00       1.75       8.52       0.00       8.52        2.62   373.60   0.634
  sub66                     13.45       0.00       0.00       3.90       7.19       0.00       7.19        2.21   337.96   0.535
  sub67                     13.45       0.00       0.00       1.07      10.19       0.01      10.19        3.15   622.58   0.758
  sub68                     13.45       0.00       0.00       1.88       9.34       0.01       9.34        2.87   531.38   0.694
  sub69                     13.45       0.00       0.00       2.01       9.68       0.01       9.69        2.26   503.32   0.720
  sub70                     13.45       9.89       0.00       7.67      12.93       0.26      13.20        3.02   423.72   0.565
  sub71                     13.45       0.00       0.00       1.07       9.40       0.00       9.40        2.22   347.35   0.699
  sub72                     13.45       0.00       0.00       0.94       7.49       0.00       7.50        1.53   163.23   0.557
  sub73                     13.45      12.84       0.00       8.67      14.26       0.27      14.53        3.41   375.92   0.552
  sub74                     13.45       0.00       0.00      10.09       2.88       0.00       2.89        1.15   273.25   0.215
  
  
  ******************
  Node Depth Summary
  ******************
  
  ---------------------------------------------------------------------------------
                                 Average  Maximum  Maximum  Time of Max    Reported
                                   Depth    Depth      HGL   Occurrence   Max Depth
  Node                 Type       Meters   Meters   Meters  days hr:min      Meters
  ---------------------------------------------------------------------------------
  WS02001211           JUNCTION     0.67     0.81     5.64     0  03:11        0.81
  WS02001212           JUNCTION     0.40     0.53     5.59     0  03:11        0.53
  WS02001213           JUNCTION     0.64     0.80     5.56     0  03:11        0.80
  WS02003069           JUNCTION     0.46     0.64     5.22     0  03:12        0.64
  WS02003072           JUNCTION     0.53     0.69     5.06     0  03:12        0.69
  WS02003073           JUNCTION     0.32     0.43     4.49     0  03:13        0.43
  WS02003060           JUNCTION     0.41     0.56     5.50     0  03:12        0.56
  WS02003066           JUNCTION     0.25     0.35     5.91     0  03:05        0.35
  WS02003059           JUNCTION     0.70     0.85     5.54     0  03:12        0.85
  WS02003067           JUNCTION     0.60     0.78     6.10     0  03:05        0.78
  WS02004401           JUNCTION     0.72     1.08     7.08     0  03:03        1.08
  WS02004402           JUNCTION     0.75     1.09     7.05     0  03:03        1.09
  WS02004403           JUNCTION     0.76     1.08     7.01     0  03:03        1.08
  WS02004404           JUNCTION     0.84     1.13     6.98     0  03:03        1.13
  WS02004406           JUNCTION     0.84     1.09     6.92     0  03:03        1.09
  WS02004409           JUNCTION     0.53     0.83     6.60     0  03:04        0.83
  WS02004410           JUNCTION     0.55     0.83     6.55     0  03:05        0.83
  WS02004411           JUNCTION     0.56     0.83     6.51     0  03:05        0.83
  WS02004412           JUNCTION     0.58     0.82     6.46     0  03:05        0.82
  WS02004413           JUNCTION     0.73     0.96     6.43     0  03:05        0.96
  WS02004405           JUNCTION     0.83     1.12     6.97     0  03:03        1.12
  WS02006109           JUNCTION     0.80     1.22     7.84     0  03:02        1.22
  WS02006110           JUNCTION     0.79     1.08     7.67     0  03:02        1.08
  WS02006111           JUNCTION     0.24     0.55     7.26     0  03:03        0.55
  WS02006112           JUNCTION     0.89     1.35     7.23     0  03:03        1.34
  WS02006113           JUNCTION     0.37     0.58     7.47     0  03:03        0.58
  WS02006115           JUNCTION     0.61     1.03     7.17     0  03:03        1.03
  WS02006116           JUNCTION     0.69     1.09     7.13     0  03:03        1.09
  WS02006230           JUNCTION     0.79     1.33     8.07     0  03:02        1.32
  WS02006231           JUNCTION     0.54     0.97     8.09     0  03:02        0.95
  WS02006232           JUNCTION     0.67     1.06     8.10     0  03:02        1.05
  WS02006234           JUNCTION     0.59     0.95     8.10     0  03:02        0.94
  WS02006235           JUNCTION     0.62     0.96     8.12     0  03:03        0.94
  WS02006238           JUNCTION     0.65     0.98     8.12     0  03:03        0.96
  WS02006240           JUNCTION     0.55     0.84     8.13     0  03:02        0.83
  WS02006242           JUNCTION     0.60     0.89     8.16     0  02:50        0.88
  WS02006243           JUNCTION     0.48     0.77     8.19     0  02:50        0.76
  WS02006245           JUNCTION     0.45     0.73     8.21     0  02:50        0.73
  WS02006247           JUNCTION     0.47     0.73     8.23     0  02:50        0.73
  WS02006248           JUNCTION     0.41     0.66     8.25     0  02:50        0.66
  WS02006249           JUNCTION     0.44     0.67     8.26     0  02:50        0.66
  WS02006239           JUNCTION     0.60     0.91     8.12     0  03:02        0.90
  WS02006251           JUNCTION     0.43     0.72     8.39     0  02:50        0.72
  WS02006252           JUNCTION     0.36     0.59     8.84     0  03:40        0.59
  WS02006253           JUNCTION     0.45     0.76     8.40     0  02:50        0.75
  WS02006256           JUNCTION     1.06     1.22     8.15     0  03:10        1.22
  WS02004138           JUNCTION     0.15     0.19     7.44     0  04:52        0.19
  WS02004407           JUNCTION     0.24     0.36     6.67     0  03:04        0.36
  WS02006228           JUNCTION     0.81     1.33     7.98     0  03:02        1.32
  WS02006229           JUNCTION     0.80     1.36     8.06     0  03:02        1.36
  WS02006280           JUNCTION     0.08     0.24     8.52     0  03:02        0.24
  WS02006284           JUNCTION     0.38     0.63     9.02     0  03:02        0.62
  WS02006287           JUNCTION     0.11     0.37     9.32     0  03:02        0.37
  WSF200               JUNCTION     0.24     0.38     5.62     0  03:08        0.38
  HS02004901           JUNCTION     0.13     0.35    10.17     0  03:01        0.35
  HS02004881           JUNCTION     0.01     0.05     9.08     0  03:01        0.05
  HS02004876           JUNCTION     0.05     0.15     9.18     0  03:01        0.15
  HS02004870           JUNCTION     0.02     0.09     9.37     0  03:01        0.09
  HS02004862           JUNCTION     0.02     0.10     9.49     0  03:01        0.10
  HS02004856           JUNCTION     0.08     0.15     9.57     0  03:01        0.15
  HS02004852           JUNCTION     0.01     0.07     9.58     0  03:02        0.07
  HS02004848           JUNCTION     0.01     0.06     9.67     0  03:01        0.06
  HS02004842           JUNCTION     0.34     0.40     9.67     0  03:01        0.40
  HS02004837           JUNCTION     0.03     0.09     9.67     0  03:01        0.09
  HS02004830           JUNCTION     0.04     0.10     9.57     0  03:01        0.10
  HS02004824           JUNCTION     0.03     0.11     9.51     0  03:02        0.11
  HS02004817           JUNCTION     0.45     0.67     9.52     0  03:02        0.67
  HS02004807           JUNCTION     0.14     0.34     9.51     0  03:02        0.34
  HS02004802           JUNCTION     0.17     0.38     9.50     0  03:02        0.38
  HS02004799           JUNCTION     0.13     0.43     9.65     0  03:01        0.43
  HS02004792           JUNCTION     0.04     0.20     9.72     0  03:01        0.19
  HS02004788           JUNCTION     0.03     0.14    10.04     0  03:02        0.14
  HS02004785           JUNCTION     0.05     0.23    10.13     0  03:02        0.23
  HS02004777           JUNCTION     0.16     0.37    10.17     0  03:01        0.37
  HS02004770           JUNCTION     0.13     0.34    10.17     0  03:01        0.34
  HS02004480           JUNCTION     0.09     0.35     9.59     0  03:01        0.35
  HS02004479           JUNCTION     0.13     0.39     9.60     0  03:01        0.39
  HS02004478           JUNCTION     0.07     0.26     9.48     0  03:01        0.26
  YS02001745           JUNCTION     0.70     0.89     8.41     0  03:23        0.89
  YS02001748           JUNCTION     1.08     2.27     9.35     0  02:45        1.32
  YS02001751           JUNCTION     1.27     2.20     9.08     0  02:46        1.53
  YS02001754           JUNCTION     1.52     2.20     8.81     0  02:45        1.81
  YS02001762           JUNCTION     1.72     2.07     8.47     0  02:46        2.03
  YS02001765           JUNCTION     1.67     2.01     8.46     0  02:46        1.97
  YS02001767           JUNCTION     1.64     1.97     8.46     0  02:46        1.93
  YS02001770           JUNCTION     1.63     1.95     8.44     0  02:46        1.91
  YS02001774           JUNCTION     1.70     2.01     8.43     0  02:46        1.97
  YS02001779           JUNCTION     1.45     1.68     8.37     0  02:45        1.68
  YS02001882           JUNCTION     0.60     1.65     8.36     0  02:50        1.62
  YS02001884           JUNCTION     0.69     1.74     8.36     0  02:50        1.72
  YS02001759           JUNCTION     1.75     2.12     8.48     0  02:46        2.07
  YS02001887           JUNCTION     0.77     1.81     8.35     0  03:00        1.80
  YS02001890           JUNCTION     0.80     1.81     8.32     0  02:50        1.81
  YS02001898           JUNCTION     0.57     1.56     8.30     0  02:50        1.56
  YS02001901           JUNCTION     0.69     1.68     8.29     0  02:51        1.67
  YS02001904           JUNCTION     0.66     1.64     8.27     0  02:51        1.63
  YS02001907           JUNCTION     0.99     1.96     8.25     0  02:50        1.96
  YS02001910           JUNCTION     0.78     1.79     8.30     0  02:52        1.78
  YS02001915           JUNCTION     0.58     1.61     8.33     0  02:52        1.59
  YS02001918           JUNCTION     0.32     1.36     8.42     0  02:50        1.28
  YS02001619           JUNCTION     1.23     1.61     8.54     0  02:41        1.50
  YS02001629           JUNCTION     1.59     1.85     8.40     0  02:41        1.85
  YS02001641           JUNCTION     1.69     1.99     8.43     0  02:45        1.93
  YS02001644           JUNCTION     1.69     1.92     8.35     0  02:45        1.92
  YS02001652           JUNCTION     1.53     2.16     8.76     0  02:57        1.99
  YS02001655           JUNCTION     1.30     2.20     9.05     0  02:42        1.83
  YS02001920           JUNCTION     0.42     1.39     8.40     0  02:52        1.36
  YS02001923           JUNCTION     0.26     1.15     8.41     0  02:52        1.13
  YS02001926           JUNCTION     0.30     0.98     8.42     0  02:52        0.95
  YS02001929           JUNCTION     0.17     0.76     8.45     0  02:52        0.69
  YS02001658           JUNCTION     1.03     2.30     9.44     0  02:42        1.55
  YS02001661           JUNCTION     0.81     2.46     9.86     0  02:57        1.89
  YS02001664           JUNCTION     0.35     0.57     8.49     0  04:09        0.56
  YS02001622           JUNCTION     1.25     1.62     8.52     0  02:41        1.51
  YS02001633           JUNCTION     1.68     2.01     8.47     0  02:45        1.94
  YS02001649           JUNCTION     1.73     2.05     8.44     0  02:53        2.05
  YS02001757           JUNCTION     1.85     2.21     8.47     0  02:45        2.16
  YS02001895           JUNCTION     0.56     1.57     8.31     0  03:01        1.56
  YS02001625           JUNCTION     1.54     1.78     8.38     0  02:41        1.78
  YS02163301           JUNCTION     1.62     1.92     8.43     0  02:45        1.88
  YS02163601           JUNCTION     1.73     2.08     8.48     0  02:45        1.98
  YS02164001           JUNCTION     1.67     2.02     8.48     0  02:45        1.91
  YS02001647           JUNCTION     1.52     1.82     8.43     0  02:45        1.80
  YSB1154              JUNCTION     0.27     0.54     9.60     0  03:01        0.54
  YSB6556              JUNCTION     0.16     0.43     9.60     0  03:02        0.43
  YSB1174              JUNCTION     0.22     0.49     9.60     0  03:01        0.49
  YSB1171              JUNCTION     0.42     0.69     9.60     0  03:01        0.69
  YS02006553           JUNCTION     0.99     1.97     8.25     0  02:59        1.96
  YS02006561           JUNCTION     0.36     1.11     7.77     0  02:50        1.10
  YS02006556           JUNCTION     0.96     1.93     8.24     0  03:00        1.93
  YS02006558           JUNCTION     1.00     1.97     8.24     0  03:00        1.96
  YS02001783           JUNCTION     0.61     1.51     7.65     0  02:50        1.49
  YS02001784           JUNCTION     0.63     1.81     7.88     0  02:39        1.44
  YS02001786           JUNCTION     0.57     2.06     8.09     0  02:39        1.29
  YS02001788           JUNCTION     0.52     1.79     7.77     0  02:39        1.15
  YS02001790           JUNCTION     0.67     1.96     7.60     0  02:38        1.31
  YS02001791           JUNCTION     0.68     1.63     7.10     0  05:09        1.28
  YS02001793           JUNCTION     1.01     2.27     7.10     0  02:36        1.80
  WS02004139           JUNCTION     0.61     0.75     5.66     0  03:11        0.75
  WSC                  OUTFALL      0.32     0.43     1.10     0  03:13        0.43
  3                    OUTFALL      0.11     0.21     6.21     0  03:10        0.21
  4                    OUTFALL      0.03     0.16     7.16     0  02:50        0.16
  5                    OUTFALL      0.00     0.00     5.00     0  00:00        0.00
  JK-storage           STORAGE      3.60     5.80     6.60     0  02:39        5.80
  CC-storage           STORAGE      1.08     1.38     8.38     0  03:29        1.38
  XR-storage           STORAGE      7.05     7.72     5.72     0  02:51        7.72
  
  
  *******************
  Node Inflow Summary
  *******************
  
  -------------------------------------------------------------------------------------------------
                                  Maximum  Maximum                  Lateral       Total        Flow
                                  Lateral    Total  Time of Max      Inflow      Inflow     Balance
                                   Inflow   Inflow   Occurrence      Volume      Volume       Error
  Node                 Type           LPS      LPS  days hr:min    10^6 ltr    10^6 ltr     Percent
  -------------------------------------------------------------------------------------------------
  WS02001211           JUNCTION      7.35   388.18     0  05:00       0.207        7.02       0.447
  WS02001212           JUNCTION      0.00   388.94     0  05:00           0        6.99       0.250
  WS02001213           JUNCTION      0.00   390.01     0  05:00           0        6.97       0.304
  WS02003069           JUNCTION      0.32  1098.40     0  03:12     0.00902        15.8       0.189
  WS02003072           JUNCTION      0.00  1097.96     0  03:12           0        15.8       0.233
  WS02003073           JUNCTION      1.82  1099.60     0  03:13      0.0514        15.8       0.265
  WS02003060           JUNCTION     16.53  1098.56     0  03:11       0.466        15.8       0.179
  WS02003066           JUNCTION      0.00   774.99     0  03:05           0        8.46       0.058
  WS02003059           JUNCTION      0.00   391.95     0  05:01           0        6.95       0.532
  WS02003067           JUNCTION      0.00   774.71     0  03:05           0        8.47       0.119
  WS02004401           JUNCTION      0.00   777.24     0  03:03           0        8.72       0.261
  WS02004402           JUNCTION      0.00   777.29     0  03:03           0         8.7       0.245
  WS02004403           JUNCTION      0.00   777.32     0  03:03           0        8.68       0.221
  WS02004404           JUNCTION      0.16   777.51     0  03:03     0.00457        8.66       0.166
  WS02004406           JUNCTION      0.00   777.58     0  03:04           0        8.63       0.403
  WS02004409           JUNCTION      0.00   777.42     0  03:04           0        8.58       0.214
  WS02004410           JUNCTION      0.00   776.17     0  03:04           0        8.57       0.240
  WS02004411           JUNCTION      0.00   775.26     0  03:04           0        8.55       0.244
  WS02004412           JUNCTION      0.00   774.77     0  03:05           0        8.52       0.261
  WS02004413           JUNCTION      0.00   774.63     0  03:05           0         8.5       0.381
  WS02004405           JUNCTION      0.04   777.55     0  03:04     0.00107        8.65       0.247
  WS02006109           JUNCTION      1.23   762.42     0  03:02      0.0347        8.78       0.225
  WS02006110           JUNCTION      0.00   762.39     0  03:02           0        8.76       0.245
  WS02006111           JUNCTION      0.00   759.76     0  03:03           0        8.73       0.053
  WS02006112           JUNCTION     26.73   776.76     0  03:03      0.0709        8.79       0.349
  WS02006113           JUNCTION      0.00   762.41     0  03:02           0        8.74       0.118
  WS02006115           JUNCTION      0.00   776.74     0  03:03           0        8.76       0.248
  WS02006116           JUNCTION      0.00   777.06     0  03:03           0        8.74       0.234
  WS02006230           JUNCTION     10.28   397.39     0  06:50        0.29        6.68       0.167
  WS02006231           JUNCTION      0.00   388.13     0  06:12           0        6.41       0.221
  WS02006232           JUNCTION      0.00   388.32     0  06:12           0        6.42       0.257
  WS02006234           JUNCTION      0.00   390.05     0  06:12           0        6.43       0.132
  WS02006235           JUNCTION      0.00   391.78     0  04:22           0        6.48       0.171
  WS02006238           JUNCTION      0.00   332.41     0  04:40           0        4.62       0.167
  WS02006240           JUNCTION      0.00   333.67     0  04:40           0        4.61       0.266
  WS02006242           JUNCTION      0.00   335.05     0  07:11           0        4.61       0.323
  WS02006243           JUNCTION      0.00   334.81     0  07:11           0         4.6      -0.066
  WS02006245           JUNCTION      0.00   341.03     0  06:41           0        4.61       0.233
  WS02006247           JUNCTION      0.00   347.29     0  06:41           0        4.62       0.153
  WS02006248           JUNCTION      0.00   353.18     0  06:40           0        4.62       0.080
  WS02006249           JUNCTION      0.00   484.35     0  02:50           0        5.05       0.219
  WS02006239           JUNCTION      0.00   333.31     0  04:40           0        4.62       0.246
  WS02006251           JUNCTION      0.08   484.87     0  02:50     0.00217        5.09       0.176
  WS02006252           JUNCTION      0.00   400.00     0  06:40           0        4.65       0.009
  WS02006253           JUNCTION      3.67   134.78     0  03:01     0.00915        0.44       0.872
  WS02006256           JUNCTION      0.00   600.00     0  03:10           0        6.29       0.044
  WS02004138           JUNCTION      0.00   380.00     0  04:50           0        6.84       0.056
  WS02004407           JUNCTION      0.00   777.64     0  03:04           0        8.59       0.095
  WS02006228           JUNCTION      0.00   761.19     0  03:02           0        8.76       0.166
  WS02006229           JUNCTION      0.00   761.09     0  03:02           0        8.77       0.131
  WS02006280           JUNCTION      0.00   611.96     0  03:02           0         2.1       0.003
  WS02006284           JUNCTION      0.10   611.06     0  03:02      0.0027         2.1       0.059
  WS02006287           JUNCTION      0.00   609.83     0  03:02           0         2.1       0.034
  WSF200               JUNCTION      0.00   774.99     0  03:05           0        8.46       0.061
  HS02004901           JUNCTION     32.58    32.58     0  03:01      0.0853      0.0856       2.108
  HS02004881           JUNCTION     13.69   131.68     0  03:01      0.0372       0.403       0.078
  HS02004876           JUNCTION     24.31   119.36     0  03:01      0.0714       0.367       0.153
  HS02004870           JUNCTION     25.15    96.63     0  03:01      0.0703       0.295       0.038
  HS02004862           JUNCTION     23.13    73.48     0  03:01      0.0763       0.225       0.079
  HS02004856           JUNCTION     18.81    51.88     0  03:01      0.0529        0.15       0.973
  HS02004852           JUNCTION      0.00    35.11     0  03:01           0      0.0975       0.061
  HS02004848           JUNCTION     51.30    51.30     0  03:01        0.17        0.17       0.030
  HS02004842           JUNCTION      0.00    15.11     0  03:01           0      0.0852      18.027
  HS02004837           JUNCTION     48.64    62.30     0  03:01       0.302       0.374       0.218
  HS02004830           JUNCTION      0.15    61.39     0  03:01     0.00423       0.364       0.340
  HS02004824           JUNCTION     61.99   121.76     0  03:01       0.222       0.584       0.093
  HS02004817           JUNCTION      0.60   117.99     0  03:02      0.0169       0.601       2.855
  HS02004807           JUNCTION     46.68   158.05     0  03:01       0.129       0.713       0.602
  HS02004802           JUNCTION      0.00   156.92     0  03:03           0       0.709       0.571
  HS02004799           JUNCTION     37.02   389.11     0  03:01       0.105        1.19       0.208
  HS02004792           JUNCTION    159.34   356.47     0  03:01       0.445        1.08       0.039
  HS02004788           JUNCTION     52.70   202.57     0  03:02       0.193       0.638       0.062
  HS02004785           JUNCTION      0.15   157.28     0  03:01     0.00423       0.447       0.112
  HS02004777           JUNCTION      0.03   160.01     0  03:01    0.000846       0.447       1.175
  HS02004770           JUNCTION    133.95   163.78     0  03:01       0.365       0.449       0.699
  HS02004480           JUNCTION      0.00   456.69     0  03:01           0         1.4       0.084
  HS02004479           JUNCTION      0.00    72.19     0  03:02           0       0.228       0.322
  HS02004478           JUNCTION      0.00   609.30     0  03:02           0         2.1       0.018
  YS02001745           JUNCTION    387.96   389.42     0  02:44        2.65        2.65       0.376
  YS02001748           JUNCTION      0.04   588.75     0  02:45     0.00127        2.64       0.879
  YS02001751           JUNCTION      0.01   401.79     0  03:01     0.00031        2.62       0.907
  YS02001754           JUNCTION      0.26   401.95     0  03:01     0.00733         2.6       0.959
  YS02001762           JUNCTION      0.00   381.81     0  02:54           0        1.77       1.213
  YS02001765           JUNCTION      0.00   381.73     0  02:54           0        1.77       1.400
  YS02001767           JUNCTION      0.54   381.84     0  02:54      0.0151         1.8       2.042
  YS02001770           JUNCTION    496.57   496.57     0  03:01        2.97        3.08       1.043
  YS02001774           JUNCTION      0.00   404.28     0  03:29           0        1.37       1.876
  YS02001779           JUNCTION      0.01   404.58     0  03:28    0.000141        1.34       1.164
  YS02001882           JUNCTION      0.00    32.15     0  02:41           0      0.0191      13.688
  YS02001884           JUNCTION      0.00    61.41     0  02:41           0      0.0546      13.227
  YS02001759           JUNCTION    483.56   764.87     0  02:55        2.74        4.38       0.530
  YS02001887           JUNCTION    623.03   623.03     0  03:01        3.16        3.19       0.277
  YS02001890           JUNCTION      0.00   623.04     0  03:01           0        3.14       0.300
  YS02001898           JUNCTION      0.00   516.93     0  03:08           0        3.09       0.116
  YS02001901           JUNCTION      0.00   516.95     0  03:07           0        3.08       0.226
  YS02001904           JUNCTION      0.00   516.90     0  03:07           0        3.08       0.209
  YS02001907           JUNCTION      0.00  1058.85     0  03:01           0        6.88       0.353
  YS02001910           JUNCTION      0.00   542.84     0  03:01           0        3.81       0.321
  YS02001915           JUNCTION    347.37   542.62     0  03:01        2.22        3.85       0.164
  YS02001918           JUNCTION      0.00   280.38     0  02:53           0        1.66       0.120
  YS02001619           JUNCTION    337.96   337.96     0  03:01        2.21        2.21       0.551
  YS02001629           JUNCTION      0.00   220.39     0  02:49           0        1.57       1.859
  YS02001641           JUNCTION      0.00   464.18     0  02:49           0        4.09       0.519
  YS02001644           JUNCTION    368.39  1141.25     0  03:25        2.55        9.19       0.286
  YS02001652           JUNCTION      0.00   486.75     0  03:01           0        2.31       1.009
  YS02001655           JUNCTION      0.15   486.30     0  03:01     0.00434        2.33       1.092
  YS02001920           JUNCTION      2.87   280.35     0  02:53      0.0809        1.64       0.192
  YS02001923           JUNCTION      0.04   244.26     0  02:53     0.00106        1.55       0.052
  YS02001926           JUNCTION      0.05   195.66     0  02:53     0.00147        1.53       0.225
  YS02001929           JUNCTION    163.23   163.23     0  03:01        1.53        1.53       0.039
  YS02001658           JUNCTION      0.00   594.17     0  02:41           0        2.35       0.964
  YS02001661           JUNCTION      0.00   741.02     0  02:58           0        3.04      -0.124
  YS02001664           JUNCTION    446.68   446.68     0  03:01        2.35        3.04       0.203
  YS02001622           JUNCTION      0.00   338.16     0  03:01           0        2.19       1.462
  YS02001633           JUNCTION    373.80   465.03     0  02:49        2.63        4.14       0.783
  YS02001649           JUNCTION      0.00   985.50     0  02:50           0        5.31       0.704
  YS02001757           JUNCTION      0.00  1923.52     0  02:51           0        9.48       0.983
  YS02001895           JUNCTION      0.00   516.89     0  03:07           0        3.09       0.163
  YS02001625           JUNCTION      0.00   338.08     0  03:01           0        2.16       1.806
  YS02163301           JUNCTION      0.00   220.44     0  02:49           0        1.54       1.583
  YS02163601           JUNCTION      0.11   464.79     0  02:49      0.0031        4.11       0.739
  YS02164001           JUNCTION      0.00   464.82     0  02:49           0        4.09       0.495
  YS02001647           JUNCTION      0.00   705.71     0  02:49           0        4.36       0.654
  YSB1154              JUNCTION     43.21    43.21     0  03:01       0.127       0.128       1.145
  YSB6556              JUNCTION      0.00    41.77     0  03:01           0       0.129       0.980
  YSB1174              JUNCTION     35.94    35.94     0  03:01      0.0924      0.0931       1.403
  YSB1171              JUNCTION      0.00    73.33     0  03:01           0       0.227       2.865
  YS02006553           JUNCTION      0.00   671.83     0  03:32           0        6.13       0.257
  YS02006561           JUNCTION      0.00   969.17     0  03:01           0        8.97       0.008
  YS02006556           JUNCTION      0.00   671.66     0  03:32           0        6.13       0.187
  YS02006558           JUNCTION    532.26   969.13     0  03:00         2.9           9       0.061
  YS02001783           JUNCTION      0.00   969.00     0  03:01           0        8.97       0.027
  YS02001784           JUNCTION      1.06   970.11     0  03:01      0.0299           9       0.044
  YS02001786           JUNCTION      0.06   970.06     0  03:01     0.00159        8.99       0.041
  YS02001788           JUNCTION      0.07   970.17     0  03:00       0.002        8.99       0.025
  YS02001790           JUNCTION      0.15   970.35     0  03:00     0.00437           9       0.027
  YS02001791           JUNCTION      0.00   970.36     0  03:01           0        8.99       0.013
  YS02001793           JUNCTION      0.00   970.47     0  03:01           0        8.99       0.005
  WS02004139           JUNCTION      0.32   380.32     0  04:52     0.00905        6.84       0.477
  WSC                  OUTFALL       0.00  1099.49     0  03:13           0        15.8       0.000
  3                    OUTFALL       0.00   533.14     0  03:10           0         4.4       0.000
  4                    OUTFALL       0.00   244.41     0  02:50           0       0.421       0.000
  5                    OUTFALL       0.00     0.00     0  00:00           0           0       0.000 ltr
  JK-storage           STORAGE       0.00   970.62     0  03:00           0        9.14      -5.197
  CC-storage           STORAGE       0.00  1923.32     0  02:51           0        8.11       0.610
  XR-storage           STORAGE     849.17   849.17     0  03:01        10.2        10.8      -0.000
  
  
  **********************
  Node Surcharge Summary
  **********************
  
  Surcharging occurs when water rises above the top of the highest conduit.
  ---------------------------------------------------------------------
                                               Max. Height   Min. Depth
                                   Hours       Above Crown    Below Rim
  Node                 Type      Surcharged         Meters       Meters
  ---------------------------------------------------------------------
  WS02004401           JUNCTION        0.32          0.082        1.578
  WS02004402           JUNCTION        0.37          0.087        1.653
  WS02004403           JUNCTION        0.37          0.080        1.950
  WS02004404           JUNCTION        0.55          0.134        2.646
  WS02004406           JUNCTION        0.50          0.089        2.361
  WS02004405           JUNCTION        0.53          0.117        2.683
  WS02006109           JUNCTION        2.67          0.403        1.417
  WS02006110           JUNCTION        0.99          0.171        1.679
  WS02006112           JUNCTION        1.22          0.350        1.330
  WS02006115           JUNCTION        0.07          0.019        2.231
  WS02006116           JUNCTION        0.11          0.029        2.261
  WS02006230           JUNCTION        0.53          0.246        1.324
  WS02006231           JUNCTION        0.58          0.257        1.273
  WS02006232           JUNCTION        2.93          0.356        1.124
  WS02006234           JUNCTION        0.81          0.225        1.015
  WS02006235           JUNCTION        1.66          0.245        1.045
  WS02006238           JUNCTION        2.09          0.259        1.171
  WS02006240           JUNCTION        0.63          0.128        1.262
  WS02006242           JUNCTION        1.36          0.157        0.663
  WS02006243           JUNCTION        0.32          0.057        0.713
  WS02006245           JUNCTION        0.08          0.020        0.830
  WS02006247           JUNCTION        0.08          0.023        0.737
  WS02006239           JUNCTION        0.87          0.173        1.117
  WS02006252           JUNCTION        2.14          0.193        0.907
  WS02006228           JUNCTION        2.54          0.503        1.697
  YS02001748           JUNCTION        5.04          1.190        0.000
  YS02001751           JUNCTION        5.15          1.200        0.000
  YS02001754           JUNCTION        5.29          1.150        0.000
  YS02001762           JUNCTION        5.51          1.071        0.079
  YS02001765           JUNCTION        5.49          1.012        0.088
  YS02001767           JUNCTION        5.47          0.972        0.058
  YS02001770           JUNCTION        5.45          0.920        0.000
  YS02001774           JUNCTION        5.50          1.006        0.044
  YS02001779           JUNCTION        5.30          0.680        0.000
  YS02001882           JUNCTION        1.04          0.646        0.184
  YS02001884           JUNCTION        1.07          0.680        0.190
  YS02001759           JUNCTION        5.54          1.116        0.094
  YS02001887           JUNCTION        1.15          0.759        0.191
  YS02001890           JUNCTION        1.18          0.760        0.000
  YS02001898           JUNCTION        1.00          0.532        0.208
  YS02001901           JUNCTION        1.12          0.679        0.191
  YS02001904           JUNCTION        1.10          0.641        0.209
  YS02001907           JUNCTION        1.67          0.950        0.000
  YS02001910           JUNCTION        1.23          0.789        0.311
  YS02001915           JUNCTION        1.03          0.607        0.393
  YS02001918           JUNCTION        0.79          0.358        0.452
  YS02001619           JUNCTION        5.15          0.610        0.000
  YS02001629           JUNCTION        5.16          0.470        0.000
  YS02001641           JUNCTION        5.50          0.994        0.106
  YS02001644           JUNCTION        5.50          0.920        0.000
  YS02001652           JUNCTION        5.31          1.130        0.000
  YS02001655           JUNCTION        5.17          1.200        0.000
  YS02001920           JUNCTION        0.83          0.387        0.753
  YS02001658           JUNCTION        5.06          1.300        0.000
  YS02001661           JUNCTION        0.25          1.390        0.000
  YS02001622           JUNCTION        5.17          0.620        0.000
  YS02001633           JUNCTION        5.48          0.992        0.068
  YS02001649           JUNCTION        5.52          1.050        0.000
  YS02001757           JUNCTION        5.62          1.210        0.000
  YS02001895           JUNCTION        1.01          0.567        0.183
  YS02001625           JUNCTION        5.36          0.780        0.000
  YS02163301           JUNCTION        5.46          0.917        0.113
  YS02163601           JUNCTION        5.52          1.080        0.000
  YS02164001           JUNCTION        5.49          1.020        0.080
  YS02001647           JUNCTION        5.31          0.820        0.080
  YS02006553           JUNCTION        1.72          0.969        0.221
  YS02006561           JUNCTION        0.91          0.312        0.838
  YS02006556           JUNCTION        1.42          0.891        0.459
  YS02006558           JUNCTION        1.39          0.874        0.526
  YS02001783           JUNCTION        1.51          0.707        0.893
  YS02001784           JUNCTION        1.54          1.011        0.479
  YS02001786           JUNCTION        1.51          1.258        0.172
  YS02001788           JUNCTION        1.50          0.991        0.489
  YS02001790           JUNCTION        2.93          1.157        0.000
  YS02001791           JUNCTION        3.08          0.833        1.087
  YS02001793           JUNCTION        3.35          1.266        1.334
  
  
  *********************
  Node Flooding Summary
  *********************
  
  Flooding refers to all water that overflows a node, whether it ponds or not.
  --------------------------------------------------------------------------
                                                             Total   Maximum
                                 Maximum   Time of Max       Flood    Ponded
                        Hours       Rate    Occurrence      Volume     Depth
  Node                 Flooded       LPS   days hr:min    10^6 ltr    Meters
  --------------------------------------------------------------------------
  YS02001748              0.01    264.82      0  02:46       0.000     0.000
  YS02001751              0.01      3.08      0  02:46       0.000     0.000
  YS02001754              0.01     18.87      0  02:46       0.000     0.000
  YS02001770              0.01      3.86      0  02:46       0.000     0.000
  YS02001779              2.72    404.44      0  03:28       1.324     0.000
  YS02001890              0.23    107.16      0  03:01       0.038     0.000
  YS02001907              0.66    618.81      0  03:01       0.742     0.000
  YS02001619              0.01     19.36      0  02:42       0.000     0.000
  YS02001629              0.01     31.88      0  02:41       0.000     0.000
  YS02001644              3.89   1140.93      0  03:25       7.368     0.000
  YS02001652              0.01     15.70      0  02:57       0.000     0.000
  YS02001655              0.01     18.10      0  03:10       0.000     0.000
  YS02001658              0.01    175.82      0  02:42       0.000     0.000
  YS02001661              0.01    167.31      0  02:57       0.000     0.000
  YS02001622              0.01     35.08      0  02:41       0.000     0.000
  YS02001649              0.10     51.98      0  02:57       0.005     0.000
  YS02001757              0.01     23.14      0  02:46       0.000     0.000
  YS02001625              1.15    317.68      0  03:01       0.558     0.000
  YS02163601              0.01      2.80      0  02:45       0.000     0.000
  YS02001790              0.01    100.27      0  02:38       0.000     0.000
  JK-storage              2.49    669.75      0  02:59       3.358     0.000
  XR-storage              3.92    640.13      0  03:01       3.041     0.000
  
  
  **********************
  Storage Volume Summary
  **********************
  
  --------------------------------------------------------------------------------------------------
                         Average     Avg  Evap Exfil       Maximum     Max    Time of Max    Maximum
                          Volume    Pcnt  Pcnt  Pcnt        Volume    Pcnt     Occurrence    Outflow
  Storage Unit           1000 m3    Full  Loss  Loss       1000 m3    Full    days hr:min        LPS
  --------------------------------------------------------------------------------------------------
  JK-storage               0.181      62     0     0         0.291     100       0  02:39     600.00
  CC-storage               3.008      19     0     0         3.859      25       0  03:29     400.00
  XR-storage               0.846      91     0     0         0.926     100       0  02:51     380.00
  
  
  ***********************
  Outfall Loading Summary
  ***********************
  
  -----------------------------------------------------------
                         Flow       Avg       Max       Total
                         Freq      Flow      Flow      Volume
  Outfall Node           Pcnt       LPS       LPS    10^6 ltr
  -----------------------------------------------------------
  WSC                  100.00    643.14   1099.49      15.753
  3                     86.40    241.75    533.14       4.397
  4                     43.31     45.08    244.41       0.421
  5                      0.00      0.00      0.00       0.000
  -----------------------------------------------------------
  System                57.43    929.97   1677.01      20.570
  
  
  ********************
  Link Flow Summary
  ********************
  
  -----------------------------------------------------------------------------
                                 Maximum  Time of Max   Maximum    Max/    Max/
                                  |Flow|   Occurrence   |Veloc|    Full    Full
  Link                 Type          LPS  days hr:min     m/sec    Flow   Depth
  -----------------------------------------------------------------------------
  WS02003066WSF200     CONDUIT    774.99     0  03:05      2.95    0.13    0.28
  WS02006287WS02006284 CONDUIT    610.97     0  03:02      2.31    0.28    0.37
  WS02006284WS02006280 CONDUIT    611.96     0  03:02      2.55    0.26    0.35
  WS02006280WS02006229 CONDUIT    612.08     0  03:02      4.12    0.13    0.24
  WS02006229WS02006228 CONDUIT    761.19     0  03:02      1.51    2.52    1.00
  WS02006256WS02006235 CONDUIT    158.12     0  00:13      2.30    1.67    1.00
  WS02006253WS02006251 CONDUIT    134.04     0  03:00      0.48    0.40    1.00
  WS02006252WS02006251 CONDUIT    400.21     0  06:40      3.18    1.47    1.00
  WS02006251WS02006249 CONDUIT    484.35     0  02:50      1.27    1.40    0.98
  WS02006249WS02006248 CONDUIT    353.18     0  06:40      1.15    1.93    0.93
  WS02006248WS02006247 CONDUIT    347.29     0  06:41      1.11    0.76    0.97
  WS02006247WS02006245 CONDUIT    341.03     0  06:41      1.07    2.70    1.00
  WS02006245WS02006243 CONDUIT    334.81     0  07:11      1.07    0.99    1.00
  WS02006243WS02006242 CONDUIT    335.05     0  07:11      0.94    0.72    1.00
  WS02006242WS02006240 CONDUIT    333.67     0  04:40      0.90    1.33    1.00
  WS02006240WS02006239 CONDUIT    333.31     0  04:40      0.95    1.05    1.00
  WS02006239WS02006238 CONDUIT    332.41     0  04:40      0.90    1.06    1.00
  WS02006238WS02006235 CONDUIT    331.46     0  04:40      0.91    0.74    1.00
  WS02006235WS02006234 CONDUIT    390.05     0  06:12      1.04    4.12    1.00
  WS02006234WS02006232 CONDUIT    388.32     0  06:12      1.02    0.79    1.00
  WS02006232WS02006231 CONDUIT    388.13     0  06:12      1.06    0.81    1.00
  WS02006231WS02006230 CONDUIT    387.11     0  06:50      1.35    5.87    1.00
  WS02006230WS02006229 CONDUIT    397.39     0  06:50      1.03    8.84    1.00
  WS02006228WS02006109 CONDUIT    761.19     0  03:02      1.51    3.33    1.00
  WS02006116WS02004401 CONDUIT    777.24     0  03:03      0.99    1.07    1.00
  WS02006115WS02006116 CONDUIT    777.06     0  03:03      0.99    1.00    1.00
  WS02006113WS02006111 CONDUIT    759.76     0  03:03      2.61    0.91    0.71
  WS02006112WS02006115 CONDUIT    776.74     0  03:03      0.99    0.46    1.00
  WS02006111WS02006112 CONDUIT    760.03     0  03:04      1.71    0.36    0.84
  WS02006110WS02006113 CONDUIT    762.41     0  03:02      1.66    0.69    0.86
  WS02006109WS02006110 CONDUIT    762.39     0  03:02      1.52    1.47    1.00
  WS02004411WS02004412 CONDUIT    774.77     0  03:05      1.12    1.10    0.82
  WS02004401WS02004402 CONDUIT    777.29     0  03:03      0.99    0.93    1.00
  WS02004413WS02003067 CONDUIT    774.71     0  03:05      1.36    0.33    0.68
  WS02004412WS02004413 CONDUIT    774.63     0  03:05      1.05    0.52    0.89
  WS02004410WS02004411 CONDUIT    775.26     0  03:04      1.11    1.06    0.83
  WS02004409WS02004410 CONDUIT    776.17     0  03:04      1.11    1.00    0.83
  WS02004407WS02004409 CONDUIT    777.42     0  03:04      1.60    0.28    0.59
  WS02004406WS02004407 CONDUIT    777.64     0  03:04      1.37    0.35    0.68
  WS02004405WS02004406 CONDUIT    777.58     0  03:04      0.99    1.53    1.00
  WS02004404WS02004405 CONDUIT    777.52     0  03:04      0.99    7.62    1.00
  WS02004403WS02004404 CONDUIT    777.34     0  03:03      0.99    0.56    1.00
  WS02004402WS02004403 CONDUIT    777.32     0  03:03      0.99    1.12    1.00
  WS02004139WS02001211 CONDUIT    380.83     0  05:00      0.69    0.48    0.61
  WS02004138WS02004139 CONDUIT    380.00     0  04:52      2.95    0.08    0.44
  WS02003067WS02003066 CONDUIT    774.99     0  03:05      1.48    0.25    0.47
  WS02001213WS02003059 CONDUIT    391.95     0  05:01      0.67    0.65    0.81
  WS02001212WS02001213 CONDUIT    390.01     0  05:00      1.30    0.60    0.50
  WS02001211WS02001212 CONDUIT    388.94     0  05:00      0.76    0.30    0.67
  WS02003072WS02003073 CONDUIT   1097.78     0  03:13      1.83    2.37    0.52
  WS02003069WS02003072 CONDUIT   1097.96     0  03:12      1.71    0.53    0.55
  WS02003060WS02003069 CONDUIT   1098.08     0  03:12      1.94    0.43    0.50
  WS02003059WS02003060 CONDUIT    394.78     0  05:01      0.92    0.26    0.71
  HS02004901HS02004770 CONDUIT     32.24     0  03:01      0.09    0.12    0.50
  HS02004876HS02004881 CONDUIT    119.33     0  03:01      1.17    1.27    0.15
  HS02004870HS02004876 CONDUIT     96.13     0  03:01      0.79    0.06    0.17
  HS02004842HS02004848 CONDUIT     15.11     0  03:01      0.07    0.01    0.33
  HS02004837HS02004842 CONDUIT     16.10     0  03:03      0.42    0.01    0.34
  HS02004830HS02004837 CONDUIT     61.24     0  03:01      0.66    0.06    0.13
  HS02004824HS02004830 CONDUIT     60.79     0  03:01      0.63    0.08    0.15
  HS02004817HS02004824 CONDUIT    117.39     0  03:02      0.30    0.05    0.56
  HS02004770HS02004777 CONDUIT    159.98     0  03:01      0.45    0.29    0.51
  HS02004799HS02004480 CONDUIT    387.38     0  03:01      1.00    0.49    0.56
  HS02004792HS02004799 CONDUIT    353.06     0  03:01      1.12    0.22    0.45
  HS02004788HS02004792 CONDUIT    202.14     0  03:02      1.22    0.13    0.24
  HS02004785HS02004788 CONDUIT    156.68     0  03:02      0.85    1.18    0.26
  HS02004777HS02004785 CONDUIT    157.13     0  03:01      0.53    0.19    0.42
  HS02004480HS02004478 CONDUIT    456.75     0  03:01      1.47    1.92    0.44
  HS02004479HS02004480 CONDUIT     74.07     0  03:02      0.22    0.07    0.53
  HS02004862HS02004870 CONDUIT     73.11     0  03:01      0.77    0.08    0.14
  HS02004848HS02004852 CONDUIT     35.11     0  03:01      0.52    0.04    0.10
  HS02004856HS02004862 CONDUIT     51.23     0  03:01      0.58    0.05    0.13
  HS02004852HS02004856 CONDUIT     35.02     0  03:02      0.32    0.04    0.16
  HS02004802HS02004478 CONDUIT    160.68     0  03:04      0.54    0.14    0.45
  HS02004478WS02006287 CONDUIT    609.83     0  03:02      2.03    0.17    0.33
  HS02004817HS02004807 CONDUIT    120.81     0  03:04      0.24    0.07    0.73
  HS02004807HS02004802 CONDUIT    156.92     0  03:03      0.45    0.30    0.51
  YS02001759YS02001757 CONDUIT    764.79     0  02:55      0.97    0.54    1.00
  YS02001762YS02001759 CONDUIT    381.82     0  02:54      0.49    0.44    1.00
  YS02001765YS02001762 CONDUIT    381.81     0  02:54      0.49    0.36    1.00
  YS02001770YS02001767 CONDUIT    381.30     0  02:54      0.49    1.51    1.00
  YS02001774YS02001770 CONDUIT    404.28     0  03:29      0.51    0.26    1.00
  YS02001779YS02001774 CONDUIT    404.57     0  03:28      0.52    0.20    1.00
  YS02001649YS02001757 CONDUIT    985.39     0  02:50      1.25    0.60    1.00
  YS02001767YS02001765 CONDUIT    381.73     0  02:54      0.49    0.48    1.00
  YS02006561YS02001783 CONDUIT    969.00     0  03:01      2.10    0.50    1.00
  YS02001783YS02001784 CONDUIT    969.05     0  03:01      1.93    1.34    1.00
  YS02001784YS02001785 CONDUIT    970.01     0  03:01      1.93    2.26    1.00
  YS02001788YS02001790 CONDUIT    970.20     0  03:00      2.28    0.72    1.00
  YS02001790YS02001791 CONDUIT    970.36     0  03:01      2.73    1.06    1.00
  YS02001791YS02001793 CONDUIT    970.47     0  03:01      5.49    0.42    1.00
  YS02001910YS02001907 CONDUIT    542.66     0  03:01      0.69    0.31    1.00
  YS02001786YS02001788 CONDUIT    970.09     0  03:00      2.20    1.87    1.00
  YS02001915YS02001910 CONDUIT    542.84     0  03:01      0.69    0.27    1.00
  YS02001918YS02001915 CONDUIT    280.73     0  02:53      0.44    0.15    1.00
  YS02001923YS02001920 CONDUIT    277.48     0  02:53      0.71    0.12    1.00
  YS02001926YS02001923 CONDUIT    244.22     0  02:53      0.82    0.35    0.96
  YS02001929YS02001926 CONDUIT    195.60     0  02:53      0.87    0.09    0.86
  YS02001920YS02001918 CONDUIT    280.38     0  02:53      0.70    0.27    1.00
  YS02001629YS02163301 CONDUIT    220.44     0  02:49      0.28    0.27    1.00
  YS02001619YS02001622 CONDUIT    338.16     0  03:01      0.60    0.50    1.00
  YS02001622YS02001625 CONDUIT    338.08     0  03:01      0.43    0.18    1.00
  YS02001625YS02001629 CONDUIT    220.39     0  02:49      0.28    0.10    1.00
  YS02163301YS02001633 CONDUIT    220.42     0  02:49      0.28    0.21    1.00
  YS02163601YS02164001 CONDUIT    464.82     0  02:49      0.59    0.41    1.00
  YS02164001YS02001641 CONDUIT    464.18     0  02:49      0.59    0.63    1.00
  YS02001641YS02001644 CONDUIT    464.20     0  02:49      0.59    1.50    1.00
  YS02001647YS02001649 CONDUIT    705.74     0  02:49      0.90    0.37    1.00
  YS02006553YS02006556 CONDUIT    671.66     0  03:32      0.86    0.57    1.00
  YS02006556YS02006558 CONDUIT    671.86     0  03:32      0.86    0.53    1.00
  YSB6556YSB1171       CONDUIT     41.33     0  03:02      0.13    0.04    0.80
  YS02001907YS02006553 CONDUIT    671.83     0  03:32      0.75    0.79    1.00
  YS02006558YS02006561 CONDUIT    969.17     0  03:01      3.43    2.14    1.00
  YS02001633YS02163601 CONDUIT    464.68     0  02:49      0.59    0.49    1.00
  YS02001644YS02001647 CONDUIT    705.71     0  02:49      0.90    0.41    1.00
  YS02001745YS02001748 CONDUIT    588.71     0  02:45      1.48    0.23    0.94
  YS02001748YS02001751 CONDUIT    401.78     0  03:01      1.03    0.20    1.00
  YS02001751YS02001754 CONDUIT    401.69     0  03:01      0.84    0.19    1.00
  YS02001754YS02001757 CONDUIT    401.87     0  03:01      0.51    0.16    1.00
  YS02001882YS02001884 CONDUIT     32.15     0  02:41      0.08    0.04    1.00
  YS02001884YS02001887 CONDUIT     61.41     0  02:41      0.09    0.08    1.00
  YS02001890YS02001895 CONDUIT    516.89     0  03:07      0.66    0.24    1.00
  YS02001895YS02001898 CONDUIT    516.93     0  03:08      0.66    0.90    1.00
  YS02001898YS02001901 CONDUIT    516.95     0  03:07      0.66    0.33    1.00
  YS02001901YS02001904 CONDUIT    516.90     0  03:07      0.66    0.80    1.00
  YS02001904YS02001907 CONDUIT    516.96     0  03:08      0.66    0.18    1.00
  YS02001887YS02001890 CONDUIT    623.04     0  03:01      0.79    1.07    1.00
  YS02001652YS02001649 CONDUIT    486.89     0  03:01      0.62    0.24    1.00
  YS02001655YS02001652 CONDUIT    486.75     0  03:01      0.89    0.24    1.00
  YS02001658YS02001655 CONDUIT    486.15     0  03:01      1.18    0.21    1.00
  YS02001661YS02001658 CONDUIT    594.17     0  02:41      1.56    0.23    1.00
  YS02001664YS02001661 CONDUIT    741.02     0  02:58      1.55    0.23    0.73
  YSB1154YSB6556       CONDUIT     41.77     0  03:01      0.19    0.08    0.69
  YSB1174YSB1171       CONDUIT     34.49     0  03:01      0.10    0.05    0.81
  YSB1171HS02004479    CONDUIT     72.19     0  03:02      0.54    0.05    0.65
  HS02004881HS02006253 CONDUIT    131.62     0  03:01      2.01    0.03    0.32
  YS02001793JiankangQianchi CONDUIT    970.62     0  03:00     14.33    0.08    1.00
  YS02001757CaochengTiaoxuchi CONDUIT   1923.32     0  02:51      2.68    0.84    1.00
  WSF200WS02003060     CONDUIT    774.15     0  03:05      1.96    0.17    0.39
  1                    CONDUIT   1099.49     0  03:13      3.41    0.38    0.43
  2                    CONDUIT    244.41     0  02:50      6.13    0.58    0.55
  3                    CONDUIT    533.14     0  03:10      9.89    0.85    0.71
  4                    CONDUIT      0.00     0  00:00      0.00    0.00    0.00
  CC-Pump-1            PUMP       200.00     0  03:30              1.00
  CC-Pump-2            PUMP       200.00     0  02:10              1.00
  JK-Pump-1            PUMP       300.00     0  03:00              1.00
  JK-Pump-2            PUMP       300.00     0  02:15              1.00
  XR-Pump-1            PUMP        95.00     0  00:00              1.00
  XR-Pump-2            PUMP        95.00     0  00:20              1.00
  XR-Pump-3            PUMP        95.00     0  00:00              1.00
  XR-Pump-4            PUMP        95.00     0  00:40              1.00
  
  
  ***************************
  Flow Classification Summary
  ***************************
  
  -------------------------------------------------------------------------------------
                      Adjusted    ---------- Fraction of Time in Flow Class ---------- 
                       /Actual         Up    Down  Sub   Sup   Up    Down  Norm  Inlet 
  Conduit               Length    Dry  Dry   Dry   Crit  Crit  Crit  Crit  Ltd   Ctrl  
  -------------------------------------------------------------------------------------
  WS02003066WSF200        1.00   0.04  0.01  0.00  0.00  0.95  0.00  0.00  0.60  0.00
  WS02006287WS02006284    1.00   0.03  0.01  0.00  0.58  0.37  0.00  0.00  0.67  0.00
  WS02006284WS02006280    1.00   0.04  0.00  0.00  0.00  0.00  0.00  0.96  0.00  0.00
  WS02006280WS02006229    1.00   0.04  0.00  0.00  0.00  0.00  0.00  0.96  0.00  0.00
  WS02006229WS02006228    1.00   0.00  0.00  0.00  1.00  0.00  0.00  0.00  0.00  0.00
  WS02006256WS02006235    1.00   0.00  0.00  0.00  1.00  0.00  0.00  0.00  0.00  0.00
  WS02006253WS02006251    1.00   0.02  0.01  0.00  0.96  0.00  0.00  0.00  0.00  0.00
  WS02006252WS02006251    1.00   0.07  0.00  0.00  0.00  0.00  0.93  0.00  0.00  0.00
  WS02006251WS02006249    1.00   0.00  0.00  0.00  1.00  0.00  0.00  0.00  0.24  0.00
  WS02006249WS02006248    1.00   0.00  0.00  0.00  0.91  0.00  0.08  0.00  0.00  0.00
  WS02006248WS02006247    1.00   0.00  0.00  0.00  0.98  0.00  0.00  0.02  0.12  0.00
  WS02006247WS02006245    1.00   0.00  0.00  0.00  0.98  0.00  0.00  0.02  0.00  0.00
  WS02006245WS02006243    1.00   0.01  0.00  0.00  0.96  0.00  0.00  0.03  0.01  0.00
  WS02006243WS02006242    1.00   0.01  0.00  0.00  0.99  0.00  0.00  0.00  0.19  0.00
  WS02006242WS02006240    1.00   0.00  0.00  0.00  1.00  0.00  0.00  0.00  0.00  0.00
  WS02006240WS02006239    1.00   0.00  0.00  0.00  0.97  0.00  0.00  0.03  0.01  0.00
  WS02006239WS02006238    1.00   0.00  0.00  0.00  1.00  0.00  0.00  0.00  0.00  0.00
  WS02006238WS02006235    1.00   0.00  0.00  0.00  1.00  0.00  0.00  0.00  0.00  0.00
  WS02006235WS02006234    1.00   0.00  0.00  0.00  0.97  0.00  0.03  0.00  0.00  0.00
  WS02006234WS02006232    1.00   0.00  0.00  0.00  1.00  0.00  0.00  0.00  0.01  0.00
  WS02006232WS02006231    1.00   0.00  0.00  0.00  0.99  0.00  0.00  0.00  0.00  0.00
  WS02006231WS02006230    1.00   0.00  0.00  0.00  0.67  0.00  0.32  0.00  0.00  0.00
  WS02006230WS02006229    1.00   0.00  0.00  0.00  0.99  0.00  0.00  0.01  0.00  0.00
  WS02006228WS02006109    1.00   0.00  0.00  0.00  1.00  0.00  0.00  0.00  0.00  0.00
  WS02006116WS02004401    1.00   0.02  0.00  0.00  0.98  0.00  0.00  0.00  0.00  0.00
  WS02006115WS02006116    1.00   0.02  0.00  0.00  0.97  0.00  0.00  0.01  0.00  0.00
  WS02006113WS02006111    1.00   0.02  0.00  0.00  0.02  0.96  0.00  0.00  0.09  0.00
  WS02006112WS02006115    1.00   0.02  0.00  0.00  0.98  0.00  0.00  0.00  0.00  0.00
  WS02006111WS02006112    1.00   0.02  0.00  0.00  0.98  0.00  0.00  0.00  0.89  0.00
  WS02006110WS02006113    1.00   0.00  0.01  0.00  0.98  0.00  0.00  0.00  0.00  0.00
  WS02006109WS02006110    1.00   0.00  0.00  0.00  1.00  0.00  0.00  0.00  0.00  0.00
  WS02004411WS02004412    1.00   0.04  0.00  0.00  0.96  0.00  0.00  0.00  0.00  0.00
  WS02004401WS02004402    1.00   0.02  0.00  0.00  0.98  0.00  0.00  0.00  0.00  0.00
  WS02004413WS02003067    1.00   0.04  0.01  0.00  0.00  0.00  0.95  0.00  0.00  0.00
  WS02004412WS02004413    1.00   0.04  0.00  0.00  0.96  0.00  0.00  0.00  0.03  0.00
  WS02004410WS02004411    1.00   0.03  0.00  0.00  0.97  0.00  0.00  0.00  0.03  0.00
  WS02004409WS02004410    1.00   0.03  0.00  0.00  0.97  0.00  0.00  0.00  0.03  0.00
  WS02004407WS02004409    1.00   0.03  0.00  0.00  0.96  0.00  0.00  0.00  0.87  0.00
  WS02004406WS02004407    1.00   0.00  0.03  0.00  0.97  0.00  0.00  0.00  0.00  0.00
  WS02004405WS02004406    1.00   0.00  0.00  0.00  1.00  0.00  0.00  0.00  0.03  0.00
  WS02004404WS02004405    1.00   0.00  0.00  0.00  1.00  0.00  0.00  0.00  0.00  0.00
  WS02004403WS02004404    1.00   0.00  0.02  0.00  0.98  0.00  0.00  0.00  0.01  0.00
  WS02004402WS02004403    1.00   0.02  0.00  0.00  0.98  0.00  0.00  0.00  0.00  0.00
  WS02004139WS02001211    1.00   0.00  0.00  0.00  1.00  0.00  0.00  0.00  0.00  0.00
  WS02004138WS02004139    1.00   0.00  0.00  0.00  1.00  0.00  0.00  0.00  1.00  0.00
  WS02003067WS02003066    1.00   0.05  0.00  0.00  0.95  0.00  0.00  0.00  0.00  0.00
  WS02001213WS02003059    1.00   0.00  0.00  0.00  1.00  0.00  0.00  0.00  0.00  0.00
  WS02001212WS02001213    1.00   0.00  0.00  0.00  0.90  0.00  0.10  0.00  0.00  0.00
  WS02001211WS02001212    1.00   0.00  0.00  0.00  1.00  0.00  0.00  0.00  0.00  0.00
  WS02003072WS02003073    1.00   0.00  0.00  0.00  0.00  0.00  0.00  1.00  0.00  0.00
  WS02003069WS02003072    1.00   0.00  0.00  0.00  1.00  0.00  0.00  0.00  0.22  0.00
  WS02003060WS02003069    1.00   0.00  0.00  0.00  1.00  0.00  0.00  0.00  0.10  0.00
  WS02003059WS02003060    1.00   0.00  0.00  0.00  1.00  0.00  0.00  0.00  0.01  0.00
  HS02004901HS02004770    1.00   0.04  0.00  0.00  0.96  0.00  0.00  0.00  0.01  0.00
  HS02004876HS02004881    1.00   0.00  0.00  0.00  0.89  0.11  0.00  0.00  0.00  0.00
  HS02004870HS02004876    1.00   0.00  0.00  0.00  0.99  0.01  0.00  0.00  0.95  0.00
  HS02004842HS02004848    1.00   0.00  0.04  0.00  0.96  0.00  0.00  0.00  0.58  0.00
  HS02004837HS02004842    1.00   0.00  0.00  0.00  1.00  0.00  0.00  0.00  0.11  0.00
  HS02004830HS02004837    1.00   0.00  0.00  0.00  1.00  0.00  0.00  0.00  0.99  0.00
  HS02004824HS02004830    1.00   0.00  0.00  0.00  1.00  0.00  0.00  0.00  0.01  0.00
  HS02004817HS02004824    1.00   0.00  0.00  0.00  1.00  0.00  0.00  0.00  0.98  0.00
  HS02004770HS02004777    1.00   0.00  0.04  0.00  0.96  0.00  0.00  0.00  0.04  0.00
  HS02004799HS02004480    1.00   0.00  0.01  0.00  0.96  0.00  0.03  0.00  0.00  0.00
  HS02004792HS02004799    1.00   0.00  0.00  0.00  1.00  0.00  0.00  0.00  0.98  0.00
  HS02004788HS02004792    1.00   0.00  0.00  0.00  1.00  0.00  0.00  0.00  0.98  0.00
  HS02004785HS02004788    1.00   0.00  0.00  0.00  1.00  0.00  0.00  0.00  0.00  0.00
  HS02004777HS02004785    1.00   0.00  0.00  0.00  1.00  0.00  0.00  0.00  0.15  0.00
  HS02004480HS02004478    1.00   0.04  0.00  0.00  0.67  0.00  0.00  0.29  0.00  0.00
  HS02004479HS02004480    1.00   0.02  0.00  0.00  0.98  0.00  0.00  0.00  0.13  0.00
  HS02004862HS02004870    1.00   0.00  0.00  0.00  1.00  0.00  0.00  0.00  0.06  0.00
  HS02004848HS02004852    1.00   0.04  0.00  0.00  0.96  0.00  0.00  0.00  0.64  0.00
  HS02004856HS02004862    1.00   0.00  0.05  0.00  0.95  0.00  0.00  0.00  0.79  0.00
  HS02004852HS02004856    1.00   0.04  0.00  0.00  0.96  0.00  0.00  0.00  0.81  0.00
  HS02004802HS02004478    1.00   0.04  0.00  0.00  0.96  0.00  0.00  0.00  0.03  0.00
  HS02004478WS02006287    1.00   0.04  0.00  0.00  0.73  0.23  0.00  0.00  0.66  0.00
  HS02004817HS02004807    1.00   0.00  0.04  0.00  0.96  0.00  0.00  0.00  0.01  0.00
  HS02004807HS02004802    1.00   0.04  0.00  0.00  0.96  0.00  0.00  0.00  0.00  0.00
  YS02001759YS02001757    1.00   0.00  0.00  0.00  1.00  0.00  0.00  0.00  0.17  0.00
  YS02001762YS02001759    1.00   0.00  0.00  0.00  1.00  0.00  0.00  0.00  0.04  0.00
  YS02001765YS02001762    1.00   0.00  0.00  0.00  1.00  0.00  0.00  0.00  0.17  0.00
  YS02001770YS02001767    1.00   0.00  0.00  0.00  1.00  0.00  0.00  0.00  0.00  0.00
  YS02001774YS02001770    1.00   0.00  0.04  0.00  0.96  0.00  0.00  0.00  0.04  0.00
  YS02001779YS02001774    1.00   0.00  0.00  0.00  1.00  0.00  0.00  0.00  0.22  0.00
  YS02001649YS02001757    1.00   0.00  0.00  0.00  1.00  0.00  0.00  0.00  0.17  0.00
  YS02001767YS02001765    1.00   0.00  0.00  0.00  1.00  0.00  0.00  0.00  0.01  0.00
  YS02006561YS02001783    1.00   0.05  0.00  0.00  0.49  0.46  0.00  0.00  0.53  0.00
  YS02001783YS02001784    1.00   0.00  0.05  0.00  0.95  0.00  0.00  0.00  0.01  0.00
  YS02001784YS02001785    1.00   0.00  0.00  0.00  1.00  0.00  0.00  0.00  0.21  0.00
  YS02001788YS02001790    1.00   0.00  0.00  0.00  0.59  0.41  0.00  0.00  0.45  0.00
  YS02001790YS02001791    1.00   0.00  0.00  0.00  0.55  0.45  0.00  0.00  0.32  0.00
  YS02001791YS02001793    1.00   0.00  0.00  0.00  0.58  0.41  0.00  0.00  0.02  0.00
  YS02001910YS02001907    1.00   0.00  0.00  0.00  0.99  0.00  0.00  0.00  0.13  0.00
  YS02001786YS02001788    1.00   0.00  0.00  0.00  0.56  0.44  0.00  0.00  0.00  0.00
  YS02001915YS02001910    1.00   0.00  0.00  0.00  0.99  0.01  0.00  0.00  0.19  0.00
  YS02001918YS02001915    1.00   0.00  0.00  0.00  1.00  0.00  0.00  0.00  0.56  0.00
  YS02001923YS02001920    1.00   0.00  0.00  0.00  1.00  0.00  0.00  0.00  0.83  0.00
  YS02001926YS02001923    1.00   0.00  0.03  0.00  0.19  0.00  0.78  0.00  0.00  0.00
  YS02001929YS02001926    1.00   0.00  0.04  0.00  0.96  0.00  0.00  0.00  0.75  0.00
  YS02001920YS02001918    1.00   0.00  0.00  0.00  1.00  0.00  0.00  0.00  0.00  0.00
  YS02001629YS02163301    1.00   0.04  0.00  0.00  0.95  0.00  0.00  0.00  0.00  0.00
  YS02001619YS02001622    1.00   0.04  0.00  0.00  0.96  0.00  0.00  0.00  0.00  0.00
  YS02001622YS02001625    1.00   0.04  0.00  0.00  0.96  0.00  0.00  0.00  0.08  0.00
  YS02001625YS02001629    1.00   0.04  0.02  0.00  0.93  0.00  0.02  0.00  0.00  0.00
  YS02163301YS02001633    1.00   0.00  0.04  0.00  0.96  0.00  0.00  0.00  0.00  0.00
  YS02163601YS02164001    1.00   0.00  0.03  0.00  0.97  0.00  0.00  0.00  0.00  0.00
  YS02164001YS02001641    1.00   0.00  0.03  0.00  0.97  0.00  0.00  0.00  0.06  0.00
  YS02001641YS02001644    1.00   0.00  0.00  0.00  1.00  0.00  0.00  0.00  0.00  0.00
  YS02001647YS02001649    1.00   0.00  0.05  0.00  0.95  0.00  0.00  0.00  0.01  0.00
  YS02006553YS02006556    1.00   0.00  0.00  0.00  1.00  0.00  0.00  0.00  0.03  0.00
  YS02006556YS02006558    1.00   0.00  0.00  0.00  1.00  0.00  0.00  0.00  0.00  0.00
  YSB6556YSB1171          1.00   0.02  0.02  0.00  0.96  0.00  0.00  0.00  0.00  0.00
  YS02001907YS02006553    1.00   0.00  0.00  0.00  1.00  0.00  0.00  0.00  0.00  0.00
  YS02006558YS02006561    1.00   0.05  0.00  0.00  0.23  0.72  0.00  0.00  0.45  0.00
  YS02001633YS02163601    1.00   0.00  0.00  0.00  1.00  0.00  0.00  0.00  0.16  0.00
  YS02001644YS02001647    1.00   0.00  0.05  0.00  0.95  0.00  0.00  0.00  0.00  0.00
  YS02001745YS02001748    1.00   0.00  0.00  0.00  0.89  0.01  0.00  0.10  0.04  0.00
  YS02001748YS02001751    1.00   0.00  0.00  0.00  0.97  0.03  0.00  0.00  0.15  0.00
  YS02001751YS02001754    1.00   0.00  0.00  0.00  0.94  0.00  0.00  0.05  0.02  0.00
  YS02001754YS02001757    1.00   0.00  0.00  0.00  1.00  0.00  0.00  0.00  0.21  0.00
  YS02001882YS02001884    1.00   0.04  0.00  0.00  0.96  0.00  0.00  0.00  0.00  0.00
  YS02001884YS02001887    1.00   0.03  0.01  0.00  0.97  0.00  0.00  0.00  0.00  0.00
  YS02001890YS02001895    1.00   0.00  0.04  0.00  0.96  0.00  0.00  0.00  0.00  0.00
  YS02001895YS02001898    1.00   0.04  0.00  0.00  0.95  0.00  0.01  0.00  0.00  0.00
  YS02001898YS02001901    1.00   0.05  0.00  0.00  0.95  0.00  0.00  0.00  0.03  0.00
  YS02001901YS02001904    1.00   0.04  0.00  0.00  0.96  0.00  0.00  0.00  0.00  0.00
  YS02001904YS02001907    1.00   0.00  0.04  0.00  0.96  0.00  0.00  0.00  0.00  0.00
  YS02001887YS02001890    1.00   0.00  0.00  0.00  0.99  0.00  0.01  0.00  0.00  0.00
  YS02001652YS02001649    1.00   0.00  0.00  0.00  1.00  0.00  0.00  0.00  0.19  0.00
  YS02001655YS02001652    1.00   0.00  0.00  0.00  0.94  0.00  0.00  0.05  0.03  0.00
  YS02001658YS02001655    1.00   0.00  0.04  0.00  0.93  0.03  0.00  0.00  0.13  0.00
  YS02001661YS02001658    1.00   0.04  0.00  0.00  0.88  0.08  0.00  0.00  0.07  0.00
  YS02001664YS02001661    1.00   0.04  0.00  0.00  0.89  0.08  0.00  0.00  0.22  0.00
  YSB1154YSB6556          1.00   0.04  0.00  0.00  0.96  0.00  0.00  0.00  0.02  0.00
  YSB1174YSB1171          1.00   0.02  0.01  0.00  0.97  0.00  0.00  0.00  0.00  0.00
  YSB1171HS02004479       1.00   0.02  0.00  0.00  0.98  0.00  0.00  0.01  0.11  0.00
  HS02004881HS02006253    1.00   0.02  0.00  0.00  0.79  0.03  0.00  0.16  0.64  0.00
  YS02001793JiankangQianchi    1.00   0.00  0.00  0.00  0.71  0.29  0.00  0.00  0.14  0.00
  YS02001757CaochengTiaoxuchi    1.00   0.00  0.07  0.00  0.92  0.01  0.00  0.00  0.00  0.00
  WSF200WS02003060        1.00   0.00  0.04  0.00  0.62  0.34  0.00  0.00  0.25  0.00
  1                       1.00   0.00  0.00  0.00  0.00  1.00  0.00  0.00  0.31  0.00
  2                       1.00   0.56  0.00  0.00  0.00  0.44  0.00  0.00  0.11  0.00
  3                       1.00   0.14  0.00  0.00  0.00  0.86  0.00  0.00  0.28  0.00
  4                       1.00   1.00  0.00  0.00  0.00  0.00  0.00  0.00  0.00  0.00
  
  
  *************************
  Conduit Surcharge Summary
  *************************
  
  ----------------------------------------------------------------------------
                                                           Hours        Hours 
                         --------- Hours Full --------   Above Full   Capacity
  Conduit                Both Ends  Upstream  Dnstream   Normal Flow   Limited
  ----------------------------------------------------------------------------
  WS02006229WS02006228        2.54      2.83      2.54      4.64         2.54
  WS02006256WS02006235        6.01      6.02      7.52      2.23         0.01
  WS02006253WS02006251        0.02      0.02      0.07      0.01         0.01
  WS02006252WS02006251        0.87      0.87      2.14      1.81         0.01
  WS02006251WS02006249        0.01      0.03      0.01      0.95         0.01
  WS02006249WS02006248        0.01      0.01      0.01      4.48         0.01
  WS02006248WS02006247        0.01      0.01      0.08      0.01         0.01
  WS02006247WS02006245        0.08      0.11      0.08      5.07         0.08
  WS02006245WS02006243        0.11      0.11      0.32      0.01         0.01
  WS02006243WS02006242        0.40      0.40      1.36      0.01         0.01
  WS02006242WS02006240        0.63      0.63      1.98      2.06         0.01
  WS02006240WS02006239        0.70      0.70      0.87      0.09         0.01
  WS02006239WS02006238        1.85      1.85      2.09      0.11         0.01
  WS02006238WS02006235        1.92      1.92      2.67      0.01         0.02
  WS02006235WS02006234        0.81      0.81      1.66      6.04         0.01
  WS02006234WS02006232        1.05      1.05      2.93      0.01         0.01
  WS02006232WS02006231        0.58      0.58      2.93      0.01         0.01
  WS02006231WS02006230        0.53      0.53      0.65      6.03         0.01
  WS02006230WS02006229        3.87      4.33      3.87      6.14         3.87
  WS02006228WS02006109        2.67      3.42      2.67      5.37         2.67
  WS02006116WS02004401        0.31      0.31      0.32      0.21         0.21
  WS02006115WS02006116        0.10      0.10      0.11      0.01         0.01
  WS02006112WS02006115        0.07      0.07      1.22      0.01         0.01
  WS02006111WS02006112        0.01      0.01      4.82      0.01         0.01
  WS02006110WS02006113        0.01      0.01      3.09      0.01         0.01
  WS02006109WS02006110        0.99      0.99      3.42      1.00         0.01
  WS02004411WS02004412        0.01      0.01      0.01      0.28         0.01
  WS02004401WS02004402        0.32      0.32      0.37      0.01         0.01
  WS02004410WS02004411        0.01      0.01      0.01      0.18         0.01
  WS02004409WS02004410        0.01      0.01      0.01      0.03         0.01
  WS02004406WS02004407        0.01      0.01      0.49      0.01         0.01
  WS02004405WS02004406        0.49      0.53      0.49      1.16         0.49
  WS02004404WS02004405        0.53      0.55      0.53      5.89         0.53
  WS02004403WS02004404        0.37      0.37      0.55      0.01         0.01
  WS02004402WS02004403        0.37      0.37      0.37      0.30         0.31
  WS02003072WS02003073        0.01      0.01      0.01      5.48         0.01
  HS02004876HS02004881        0.01      0.01      0.01      0.17         0.01
  HS02004785HS02004788        0.01      0.01      0.01      0.10         0.01
  HS02004480HS02004478        0.01      0.01      0.01      0.52         0.01
  YS02001759YS02001757        5.54      5.54      5.62      0.01         0.01
  YS02001762YS02001759        5.51      5.51      5.54      0.01         0.01
  YS02001765YS02001762        5.49      5.49      5.51      0.01         0.01
  YS02001770YS02001767        5.46      5.47      5.47      0.30         0.79
  YS02001774YS02001770        5.45      5.45      5.50      0.01         0.01
  YS02001779YS02001774        5.30      5.30      5.50      0.01         0.01
  YS02001649YS02001757        5.52      5.52      5.62      0.01         0.01
  YS02001767YS02001765        5.47      5.47      5.49      0.01         0.01
  YS02006561YS02001783        0.91      0.91      1.51      0.01         0.01
  YS02001783YS02001784        1.51      1.51      1.54      1.30         1.24
  YS02001784YS02001785        1.51      1.54      1.51      2.22         1.51
  YS02001788YS02001790        1.50      1.50      2.93      0.01         0.01
  YS02001790YS02001791        2.93      2.93      3.07      0.76         0.76
  YS02001791YS02001793        3.07      3.07      3.48      0.01         0.01
  YS02001910YS02001907        1.23      1.23      1.67      0.01         0.01
  YS02001786YS02001788        1.50      1.51      1.50      1.87         1.49
  YS02001915YS02001910        1.03      1.03      1.23      0.01         0.01
  YS02001918YS02001915        0.79      0.79      1.03      0.01         0.01
  YS02001923YS02001920        0.62      0.62      0.83      0.01         0.01
  YS02001920YS02001918        0.79      0.79      0.83      0.01         0.01
  YS02001629YS02163301        5.45      5.45      5.46      0.01         0.01
  YS02001619YS02001622        5.15      5.15      5.17      0.01         0.01
  YS02001622YS02001625        5.17      5.17      5.36      0.01         0.01
  YS02001625YS02001629        5.16      5.16      5.36      0.01         0.01
  YS02163301YS02001633        5.46      5.46      5.49      0.01         0.01
  YS02163601YS02164001        5.49      5.49      5.52      0.01         0.01
  YS02164001YS02001641        5.49      5.49      5.50      0.01         0.02
  YS02001641YS02001644        5.50      5.50      5.50      1.48         1.59
  YS02001647YS02001649        5.31      5.31      5.52      0.01         0.01
  YS02006553YS02006556        1.42      1.42      1.72      0.01         0.01
  YS02006556YS02006558        1.55      1.55      1.80      0.01         0.01
  YS02001907YS02006553        2.24      2.24      2.45      0.01         0.01
  YS02006558YS02006561        1.12      1.39      1.12      2.09         1.12
  YS02001633YS02163601        5.48      5.48      5.52      0.01         0.01
  YS02001644YS02001647        5.31      5.31      5.50      0.01         0.01
  YS02001745YS02001748        0.01      0.01      5.04      0.01         0.01
  YS02001748YS02001751        5.06      5.06      5.15      0.01         0.01
  YS02001751YS02001754        5.15      5.15      5.29      0.01         0.01
  YS02001754YS02001757        5.31      5.31      5.62      0.01         0.01
  YS02001882YS02001884        1.04      1.04      1.07      0.01         0.01
  YS02001884YS02001887        1.12      1.12      1.15      0.01         0.01
  YS02001890YS02001895        1.01      1.01      1.24      0.01         0.01
  YS02001895YS02001898        1.00      1.00      1.01      0.01         0.01
  YS02001898YS02001901        1.02      1.02      1.12      0.01         0.01
  YS02001901YS02001904        1.10      1.10      1.12      0.01         0.01
  YS02001904YS02001907        1.10      1.10      1.75      0.01         0.01
  YS02001887YS02001890        1.18      1.18      1.21      0.07         0.01
  YS02001652YS02001649        5.32      5.32      5.52      0.01         0.01
  YS02001655YS02001652        5.17      5.17      5.31      0.01         0.01
  YS02001658YS02001655        5.06      5.06      5.17      0.01         0.01
  YS02001661YS02001658        0.24      0.24      5.06      0.01         0.01
  YS02001664YS02001661        0.01      0.01      1.23      0.01         0.01
  YS02001793JiankangQianchi        3.35      3.35      4.34      0.01         0.01
  YS02001757CaochengTiaoxuchi        4.85      4.85      5.62      0.01         0.01
  
  
  ***************
  Pumping Summary
  ***************
  
  ---------------------------------------------------------------------------------------------------------
                                                  Min       Avg       Max     Total     Power    % Time Off
                        Percent   Number of      Flow      Flow      Flow    Volume     Usage    Pump Curve
  Pump                 Utilized   Start-Ups       LPS       LPS       LPS  10^6 ltr     Kw-hr    Low   High
  ---------------------------------------------------------------------------------------------------------
  CC-Pump-1               65.90           4      0.00    127.87    200.00     2.375      2.64    0.0    3.1
  CC-Pump-2               57.39           5      0.00    143.38    200.00     2.279      3.60    0.0   13.1
  JK-Pump-1               82.96           5      0.00    160.02    300.00     2.921     27.88    0.0    0.0
  JK-Pump-2               80.85           7      0.00    188.93    300.00     3.364     30.41    0.0    0.0
  XR-Pump-1               85.09           6      0.00     71.38     95.00     1.653     12.27    0.0    0.0
  XR-Pump-2               87.21           6      0.00     72.91     95.00     1.852     16.09    0.0    0.0
  XR-Pump-3               82.95           9      0.00     69.79     95.00     1.624     13.45    0.0    0.0
  XR-Pump-4               89.33           8      0.00     67.30     95.00     1.710     13.60    0.0    0.0
  

  Analysis begun on:  Sat Dec 25 08:26:10 2021
  Analysis ended on:  Sat Dec 25 08:26:15 2021
  Total elapsed time: 00:00:05