
  EPA STORM WATER MANAGEMENT MODEL - VERSION 5.1 (Build 5.3.0.dev0)
  --------------------------------------------------------------

  WARNING 04: minimum elevation drop used for Conduit WS02004404WS02004405
  WARNING 03: negative offset ignored for Link YS02001904YS02001907
  
  *********************************************************
  NOTE: The summary statistics displayed in this report are
  based on results found at every computational time step,  
  not just on results from each reporting time step.
  *********************************************************
  
  ****************
  Analysis Options
  ****************
  Flow Units ............... LPS
  Process Models:
    Rainfall/Runoff ........ YES
    RDII ................... NO
    Snowmelt ............... NO
    Groundwater ............ NO
    Flow Routing ........... YES
    Ponding Allowed ........ NO
    Water Quality .......... NO
  Infiltration Method ...... HORTON
  Flow Routing Method ...... DYNWAVE
  Surcharge Method ......... EXTRAN
  Starting Date ............ 08/28/2015 08:00:00
  Ending Date .............. 08/28/2015 15:50:00
  Antecedent Dry Days ...... 8.0
  Report Time Step ......... 00:01:00
  Wet Time Step ............ 00:01:00
  Dry Time Step ............ 00:01:00
  Routing Time Step ........ 5.00 sec
  Variable Time Step ....... YES
  Maximum Trials ........... 8
  Number of Threads ........ 4
  Head Tolerance ........... 0.001500 m
  
  
  **************************        Volume         Depth
  Runoff Quantity Continuity     hectare-m            mm
  **************************     ---------       -------
  Total Precipitation ......         6.144        13.452
  Evaporation Loss .........         0.000         0.000
  Infiltration Loss ........         1.572         3.442
  Surface Runoff ...........         3.480         7.619
  Final Storage ............         1.093         2.393
  Continuity Error (%) .....        -0.016
  
  
  **************************        Volume        Volume
  Flow Routing Continuity        hectare-m      10^6 ltr
  **************************     ---------     ---------
  Dry Weather Inflow .......         0.616         6.165
  Wet Weather Inflow .......         3.479        34.789
  Groundwater Inflow .......         0.000         0.000
  RDII Inflow ..............         0.000         0.000
  External Inflow ..........         0.102         1.024
  External Outflow .........         2.105        21.053
  Flooding Loss ............         1.565        15.647
  Evaporation Loss .........         0.000         0.000
  Exfiltration Loss ........         0.000         0.000
  Initial Stored Volume ....         0.076         0.761
  Final Stored Volume ......         0.646         6.456
  Continuity Error (%) .....        -0.979
  
  
  *************************
  Highest Continuity Errors
  *************************
  Node HS02004842 (15.27%)
  Node YS02001884 (11.94%)
  Node JK-storage (-4.12%)
  Node YSB1171 (2.79%)
  Node HS02004817 (2.78%)
  
  
  ***************************
  Time-Step Critical Elements
  ***************************
  Link WS02006252WS02006251 (49.70%)
  Link 3 (40.20%)
  Link WS02006238WS02006235 (3.61%)
  Link WS02006280WS02006229 (1.92%)
  
  
  ********************************
  Highest Flow Instability Indexes
  ********************************
  Link YS02163601YS02164001 (42)
  Link YS02163301YS02001633 (42)
  Link YS02001629YS02163301 (41)
  Link YS02001619YS02001622 (40)
  Link YS02164001YS02001641 (39)
  
  
  *************************
  Routing Time Step Summary
  *************************
  Minimum Time Step           :     0.50 sec
  Average Time Step           :     0.78 sec
  Maximum Time Step           :     5.00 sec
  Percent in Steady State     :    -0.00
  Average Iterations per Step :     4.65
  Percent Not Converging      :    21.56
  
  
  ***************************
  Subcatchment Runoff Summary
  ***************************
  
  ------------------------------------------------------------------------------------------------------------------------------
                            Total      Total      Total      Total     Imperv       Perv      Total       Total     Peak  Runoff
                           Precip      Runon       Evap      Infil     Runoff     Runoff     Runoff      Runoff   Runoff   Coeff
  Subcatchment                 mm         mm         mm         mm         mm         mm         mm    10^6 ltr      LPS
  ------------------------------------------------------------------------------------------------------------------------------
  sub0                      13.45       0.00       0.00       0.89      11.25       0.05      11.30        0.01     3.67   0.840
  sub1                      13.45       0.00       0.00       1.45      10.71       0.03      10.74        0.07    24.31   0.799
  sub2                      13.45       0.00       0.00       4.95       7.56       0.02       7.58        0.07    22.93   0.564
  sub3                      13.45       0.00       0.00       4.96       7.52       0.02       7.54        0.17    51.30   0.560
  sub4                      13.45       0.00       0.00       1.46      10.54       0.02      10.56        0.22    61.94   0.785
  sub5                      13.45       0.00       0.00       0.91      11.19       0.03      11.22        0.13    43.21   0.834
  sub7                      13.45       0.00       0.00       1.17      10.98       0.04      11.03        0.04    13.69   0.820
  sub8                      13.45       0.00       0.00       1.17      10.97       0.04      11.01        0.07    25.15   0.819
  sub9                      13.45       0.00       0.00       1.17      10.97       0.04      11.01        0.05    18.81   0.818
  sub10                     13.45       0.00       0.00       1.04      11.08       0.03      11.11        0.12    42.29   0.826
  sub11                     13.45       0.00       0.00       1.04      11.10       0.04      11.14        0.13    46.68   0.828
  sub12                     13.45       0.00       0.00       1.69      10.51       0.06      10.58        0.09    35.94   0.786
  sub14                     13.45       0.00       0.00       1.17      10.97       0.04      11.01        0.10    37.02   0.818
  sub15                     13.45       0.00       0.00       4.00       8.43       0.04       8.47        0.15    51.03   0.630
  sub16                     13.45       0.00       0.00       4.38       8.09       0.06       8.15        0.09    32.58   0.606
  sub17                     13.45       0.00       0.00       4.25       8.21       0.06       8.27        0.07    26.73   0.615
  sub22                     13.45       0.00       0.00       5.74       6.88       0.04       6.92        0.44   159.06   0.514
  sub23                     13.45       0.00       0.00       4.93       7.60       0.05       7.65        0.36   133.95   0.569
  sub60                     13.45       0.00       0.00       1.61       8.73       0.00       8.74        2.65   387.96   0.649
  sub61                     13.45       0.00       0.00       2.28       8.88       0.00       8.88        2.74   483.52   0.660
  sub62                     13.45       0.00       0.00       1.07       9.65       0.00       9.66        2.97   496.42   0.718
  sub63                     13.45       0.00       0.00       3.90       7.77       0.00       7.77        2.35   446.68   0.578
  sub64                     13.45       0.00       0.00       2.01       8.38       0.00       8.38        2.55   368.35   0.623
  sub65                     13.45       0.00       0.00       1.75       8.52       0.00       8.52        2.62   373.60   0.634
  sub66                     13.45       0.00       0.00       3.90       7.19       0.00       7.19        2.21   337.96   0.535
  sub67                     13.45       0.00       0.00       1.07      10.19       0.01      10.19        3.15   622.58   0.758
  sub68                     13.45       0.00       0.00       1.88       9.34       0.01       9.34        2.87   531.38   0.694
  sub69                     13.45       0.00       0.00       2.01       9.68       0.01       9.69        2.26   503.32   0.720
  sub70                     13.45       9.89       0.00       7.67      12.93       0.26      13.20        3.02   423.72   0.565
  sub71                     13.45       0.00       0.00       1.07       9.40       0.00       9.40        2.22   347.35   0.699
  sub72                     13.45       0.00       0.00       0.94       7.49       0.00       7.50        1.53   163.23   0.557
  sub73                     13.45      12.84       0.00       8.67      14.26       0.27      14.53        3.41   375.92   0.552
  sub74                     13.45       0.00       0.00      10.09       2.88       0.00       2.89        1.15   273.25   0.215
  
  
  ******************
  Node Depth Summary
  ******************
  
  ---------------------------------------------------------------------------------
                                 Average  Maximum  Maximum  Time of Max    Reported
                                   Depth    Depth      HGL   Occurrence   Max Depth
  Node                 Type       Meters   Meters   Meters  days hr:min      Meters
  ---------------------------------------------------------------------------------
  WS02001211           JUNCTION     0.65     0.77     5.61     0  07:21        0.77
  WS02001212           JUNCTION     0.38     0.48     5.55     0  03:11        0.48
  WS02001213           JUNCTION     0.62     0.76     5.52     0  03:11        0.76
  WS02003069           JUNCTION     0.46     0.62     5.20     0  03:08        0.62
  WS02003072           JUNCTION     0.52     0.67     5.05     0  03:09        0.67
  WS02003073           JUNCTION     0.31     0.42     4.48     0  03:09        0.42
  WS02003060           JUNCTION     0.41     0.55     5.48     0  03:07        0.55
  WS02003066           JUNCTION     0.25     0.36     5.91     0  03:05        0.36
  WS02003059           JUNCTION     0.68     0.82     5.50     0  03:11        0.82
  WS02003067           JUNCTION     0.61     0.79     6.11     0  03:04        0.79
  WS02004401           JUNCTION     0.73     1.11     7.11     0  03:03        1.11
  WS02004402           JUNCTION     0.76     1.11     7.07     0  03:03        1.11
  WS02004403           JUNCTION     0.78     1.10     7.03     0  03:03        1.10
  WS02004404           JUNCTION     0.85     1.16     7.01     0  03:03        1.15
  WS02004406           JUNCTION     0.85     1.10     6.93     0  03:03        1.10
  WS02004409           JUNCTION     0.55     0.85     6.62     0  03:04        0.85
  WS02004410           JUNCTION     0.56     0.85     6.57     0  03:04        0.85
  WS02004411           JUNCTION     0.58     0.85     6.53     0  03:04        0.85
  WS02004412           JUNCTION     0.59     0.83     6.47     0  03:04        0.83
  WS02004413           JUNCTION     0.74     0.97     6.44     0  03:05        0.97
  WS02004405           JUNCTION     0.85     1.14     6.99     0  03:03        1.14
  WS02006109           JUNCTION     0.82     1.27     7.89     0  03:02        1.26
  WS02006110           JUNCTION     0.80     1.12     7.70     0  03:02        1.11
  WS02006111           JUNCTION     0.25     0.61     7.32     0  03:03        0.61
  WS02006112           JUNCTION     0.91     1.39     7.27     0  03:03        1.38
  WS02006113           JUNCTION     0.38     0.62     7.51     0  03:03        0.62
  WS02006115           JUNCTION     0.63     1.07     7.20     0  03:03        1.06
  WS02006116           JUNCTION     0.71     1.12     7.16     0  03:03        1.12
  WS02006230           JUNCTION     0.82     1.40     8.14     0  03:02        1.39
  WS02006231           JUNCTION     0.56     1.04     8.16     0  03:02        1.02
  WS02006232           JUNCTION     0.69     1.13     8.17     0  03:02        1.12
  WS02006234           JUNCTION     0.62     1.02     8.18     0  03:02        1.01
  WS02006235           JUNCTION     0.65     1.03     8.19     0  03:02        1.01
  WS02006238           JUNCTION     0.68     1.05     8.19     0  03:00        1.03
  WS02006240           JUNCTION     0.59     0.93     8.22     0  03:02        0.92
  WS02006242           JUNCTION     0.64     0.97     8.24     0  03:02        0.96
  WS02006243           JUNCTION     0.53     0.83     8.25     0  03:02        0.83
  WS02006245           JUNCTION     0.50     0.79     8.27     0  03:02        0.78
  WS02006247           JUNCTION     0.52     0.78     8.28     0  03:02        0.78
  WS02006248           JUNCTION     0.46     0.71     8.30     0  03:02        0.71
  WS02006249           JUNCTION     0.48     0.71     8.30     0  03:02        0.71
  WS02006239           JUNCTION     0.64     1.00     8.21     0  03:02        0.99
  WS02006251           JUNCTION     0.48     0.81     8.48     0  03:01        0.81
  WS02006252           JUNCTION     0.42     0.59     8.83     0  03:05        0.59
  WS02006253           JUNCTION     0.51     0.84     8.48     0  03:01        0.84
  WS02006256           JUNCTION     1.06     1.23     8.17     0  03:00        1.23
  WS02004138           JUNCTION     0.14     0.19     7.44     0  07:20        0.19
  WS02004407           JUNCTION     0.25     0.37     6.68     0  03:03        0.37
  WS02006228           JUNCTION     0.84     1.39     8.04     0  03:02        1.38
  WS02006229           JUNCTION     0.82     1.43     8.12     0  03:02        1.42
  WS02006280           JUNCTION     0.08     0.24     8.52     0  03:02        0.24
  WS02006284           JUNCTION     0.38     0.63     9.02     0  03:02        0.62
  WS02006287           JUNCTION     0.11     0.37     9.32     0  03:02        0.37
  WSF200               JUNCTION     0.25     0.39     5.62     0  03:05        0.39
  HS02004901           JUNCTION     0.14     0.35    10.17     0  03:01        0.35
  HS02004881           JUNCTION     0.01     0.05     9.08     0  03:01        0.05
  HS02004876           JUNCTION     0.05     0.15     9.18     0  03:01        0.15
  HS02004870           JUNCTION     0.02     0.09     9.37     0  03:01        0.09
  HS02004862           JUNCTION     0.02     0.10     9.49     0  03:01        0.10
  HS02004856           JUNCTION     0.08     0.15     9.57     0  03:01        0.15
  HS02004852           JUNCTION     0.01     0.07     9.58     0  03:02        0.07
  HS02004848           JUNCTION     0.01     0.06     9.67     0  03:01        0.06
  HS02004842           JUNCTION     0.33     0.40     9.67     0  03:01        0.40
  HS02004837           JUNCTION     0.03     0.09     9.67     0  03:01        0.09
  HS02004830           JUNCTION     0.04     0.10     9.57     0  03:01        0.10
  HS02004824           JUNCTION     0.03     0.11     9.51     0  03:02        0.11
  HS02004817           JUNCTION     0.45     0.67     9.52     0  03:02        0.67
  HS02004807           JUNCTION     0.14     0.34     9.51     0  03:02        0.34
  HS02004802           JUNCTION     0.17     0.38     9.50     0  03:02        0.38
  HS02004799           JUNCTION     0.14     0.43     9.65     0  03:01        0.43
  HS02004792           JUNCTION     0.04     0.20     9.72     0  03:01        0.19
  HS02004788           JUNCTION     0.03     0.14    10.04     0  03:02        0.14
  HS02004785           JUNCTION     0.06     0.23    10.13     0  03:02        0.23
  HS02004777           JUNCTION     0.16     0.37    10.17     0  03:01        0.37
  HS02004770           JUNCTION     0.13     0.34    10.17     0  03:01        0.34
  HS02004480           JUNCTION     0.10     0.35     9.59     0  03:01        0.35
  HS02004479           JUNCTION     0.13     0.39     9.60     0  03:01        0.39
  HS02004478           JUNCTION     0.07     0.26     9.48     0  03:01        0.26
  YS02001745           JUNCTION     0.70     0.88     8.40     0  03:25        0.88
  YS02001748           JUNCTION     1.08     2.27     9.35     0  02:46        1.33
  YS02001751           JUNCTION     1.26     2.20     9.08     0  02:46        1.71
  YS02001754           JUNCTION     1.52     2.19     8.79     0  02:47        1.80
  YS02001762           JUNCTION     1.72     2.10     8.50     0  02:46        2.03
  YS02001765           JUNCTION     1.67     2.02     8.47     0  02:46        1.97
  YS02001767           JUNCTION     1.64     1.98     8.47     0  02:47        1.93
  YS02001770           JUNCTION     1.63     1.95     8.44     0  02:47        1.90
  YS02001774           JUNCTION     1.70     2.01     8.44     0  02:47        1.97
  YS02001779           JUNCTION     1.45     1.68     8.37     0  02:44        1.68
  YS02001882           JUNCTION     0.61     1.65     8.36     0  02:50        1.62
  YS02001884           JUNCTION     0.70     1.74     8.36     0  02:50        1.72
  YS02001759           JUNCTION     1.75     2.13     8.50     0  02:46        2.07
  YS02001887           JUNCTION     0.78     1.81     8.35     0  03:00        1.80
  YS02001890           JUNCTION     0.81     1.81     8.32     0  02:50        1.81
  YS02001898           JUNCTION     0.58     1.58     8.31     0  02:50        1.56
  YS02001901           JUNCTION     0.70     1.68     8.29     0  02:50        1.67
  YS02001904           JUNCTION     0.67     1.64     8.27     0  02:51        1.63
  YS02001907           JUNCTION     1.00     1.96     8.25     0  02:50        1.96
  YS02001910           JUNCTION     0.79     1.79     8.30     0  02:52        1.77
  YS02001915           JUNCTION     0.59     1.61     8.33     0  02:52        1.59
  YS02001918           JUNCTION     0.33     1.31     8.37     0  02:52        1.27
  YS02001619           JUNCTION     1.24     1.61     8.54     0  02:42        1.48
  YS02001629           JUNCTION     1.59     1.85     8.40     0  02:42        1.84
  YS02001641           JUNCTION     1.69     1.98     8.42     0  02:46        1.93
  YS02001644           JUNCTION     1.69     1.92     8.35     0  02:46        1.92
  YS02001652           JUNCTION     1.53     2.16     8.76     0  02:54        2.09
  YS02001655           JUNCTION     1.29     2.20     9.05     0  02:45        2.10
  YS02001920           JUNCTION     0.43     1.39     8.40     0  02:52        1.34
  YS02001923           JUNCTION     0.26     1.16     8.42     0  02:52        1.10
  YS02001926           JUNCTION     0.30     1.01     8.45     0  02:52        0.96
  YS02001929           JUNCTION     0.18     0.76     8.46     0  02:52        0.70
  YS02001658           JUNCTION     1.03     2.30     9.44     0  02:45        2.10
  YS02001661           JUNCTION     0.80     2.46     9.86     0  02:54        2.08
  YS02001664           JUNCTION     0.35     0.57     8.50     0  04:19        0.57
  YS02001622           JUNCTION     1.26     1.62     8.52     0  02:42        1.50
  YS02001633           JUNCTION     1.68     2.02     8.48     0  02:46        1.94
  YS02001649           JUNCTION     1.73     2.05     8.44     0  02:45        2.05
  YS02001757           JUNCTION     1.85     2.21     8.47     0  02:46        2.16
  YS02001895           JUNCTION     0.57     1.57     8.32     0  02:50        1.56
  YS02001625           JUNCTION     1.54     1.78     8.38     0  02:42        1.78
  YS02163301           JUNCTION     1.62     1.93     8.45     0  02:46        1.88
  YS02163601           JUNCTION     1.73     2.08     8.47     0  02:46        1.98
  YS02164001           JUNCTION     1.67     2.00     8.46     0  02:46        1.91
  YS02001647           JUNCTION     1.52     1.81     8.42     0  02:46        1.79
  YSB1154              JUNCTION     0.27     0.54     9.60     0  03:01        0.54
  YSB6556              JUNCTION     0.16     0.43     9.60     0  03:02        0.43
  YSB1174              JUNCTION     0.22     0.49     9.60     0  03:01        0.49
  YSB1171              JUNCTION     0.42     0.69     9.60     0  03:01        0.69
  YS02006553           JUNCTION     1.00     1.97     8.25     0  03:00        1.96
  YS02006561           JUNCTION     0.36     1.12     7.78     0  02:50        1.08
  YS02006556           JUNCTION     0.97     1.93     8.24     0  03:01        1.93
  YS02006558           JUNCTION     1.01     1.97     8.24     0  03:00        1.97
  YS02001783           JUNCTION     0.60     2.19     8.34     0  02:42        1.47
  YS02001784           JUNCTION     0.62     2.09     8.16     0  02:42        1.41
  YS02001786           JUNCTION     0.56     2.07     8.10     0  02:42        1.26
  YS02001788           JUNCTION     0.49     2.28     8.26     0  02:42        1.13
  YS02001790           JUNCTION     0.61     1.96     7.60     0  02:41        1.29
  YS02001791           JUNCTION     0.59     1.65     7.12     0  02:42        1.27
  YS02001793           JUNCTION     0.84     2.00     6.83     0  02:42        1.80
  WS02004139           JUNCTION     0.59     0.71     5.62     0  07:20        0.71
  WSC                  OUTFALL      0.31     0.42     1.09     0  03:10        0.42
  3                    OUTFALL      0.11     0.23     6.23     0  03:00        0.23
  4                    OUTFALL      0.05     0.21     7.21     0  03:02        0.21
  5                    OUTFALL      0.00     0.00     5.00     0  00:00        0.00
  JK-storage           STORAGE      3.53     5.80     6.60     0  02:42        5.80
  CC-storage           STORAGE      1.06     1.38     8.38     0  04:42        1.38
  XR-storage           STORAGE      7.25     7.72     5.72     0  02:38        7.72
  
  
  *******************
  Node Inflow Summary
  *******************
  
  -------------------------------------------------------------------------------------------------
                                  Maximum  Maximum                  Lateral       Total        Flow
                                  Lateral    Total  Time of Max      Inflow      Inflow     Balance
                                   Inflow   Inflow   Occurrence      Volume      Volume       Error
  Node                 Type           LPS      LPS  days hr:min    10^6 ltr    10^6 ltr     Percent
  -------------------------------------------------------------------------------------------------
  WS02001211           JUNCTION      7.35   381.81     0  07:20       0.207        6.44       0.609
  WS02001212           JUNCTION      0.00   378.06     0  07:21           0        6.41       0.314
  WS02001213           JUNCTION      0.00   377.06     0  07:21           0        6.39       0.391
  WS02003069           JUNCTION      0.32  1044.27     0  03:08     0.00902        15.5       0.215
  WS02003072           JUNCTION      0.00  1043.96     0  03:08           0        15.5       0.257
  WS02003073           JUNCTION      1.82  1045.78     0  03:09      0.0514        15.5       0.296
  WS02003060           JUNCTION     16.53  1044.46     0  03:07       0.466        15.5       0.203
  WS02003066           JUNCTION      0.00   807.20     0  03:05           0        8.74       0.056
  WS02003059           JUNCTION      0.00   377.42     0  07:22           0        6.37       0.669
  WS02003067           JUNCTION      0.00   806.86     0  03:05           0        8.75       0.115
  WS02004401           JUNCTION      0.00   809.67     0  03:03           0           9       0.254
  WS02004402           JUNCTION      0.00   809.73     0  03:03           0        8.98       0.238
  WS02004403           JUNCTION      0.00   809.77     0  03:03           0        8.96       0.216
  WS02004404           JUNCTION      0.16   809.96     0  03:03     0.00457        8.94       0.161
  WS02004406           JUNCTION      0.00   810.02     0  03:03           0        8.91       0.392
  WS02004409           JUNCTION      0.00   809.84     0  03:03           0        8.87       0.208
  WS02004410           JUNCTION      0.00   808.40     0  03:04           0        8.85       0.232
  WS02004411           JUNCTION      0.00   807.44     0  03:04           0        8.83       0.237
  WS02004412           JUNCTION      0.00   806.94     0  03:04           0        8.81       0.253
  WS02004413           JUNCTION      0.00   806.80     0  03:04           0        8.79       0.368
  WS02004405           JUNCTION      0.04   810.01     0  03:03     0.00107        8.93       0.240
  WS02006109           JUNCTION      1.23   792.95     0  03:02      0.0347        9.06       0.237
  WS02006110           JUNCTION      0.00   792.88     0  03:02           0        9.04       0.229
  WS02006111           JUNCTION      0.00   790.79     0  03:03           0        9.01       0.054
  WS02006112           JUNCTION     26.73   809.37     0  03:03      0.0709        9.08       0.335
  WS02006113           JUNCTION      0.00   792.86     0  03:02           0        9.02       0.115
  WS02006115           JUNCTION      0.00   809.41     0  03:03           0        9.05       0.243
  WS02006116           JUNCTION      0.00   809.52     0  03:03           0        9.02       0.229
  WS02006230           JUNCTION     10.28   402.78     0  05:40        0.29        6.97       0.191
  WS02006231           JUNCTION      0.00   392.80     0  05:40           0         6.7       0.192
  WS02006232           JUNCTION      0.00   392.82     0  05:40           0        6.71       0.250
  WS02006234           JUNCTION      0.00   392.95     0  05:40           0        6.72       0.136
  WS02006235           JUNCTION      0.00   392.98     0  05:40           0        6.77       0.158
  WS02006238           JUNCTION      0.00   336.68     0  04:21           0        5.05       0.143
  WS02006240           JUNCTION      0.00   336.18     0  04:21           0        5.05       0.250
  WS02006242           JUNCTION      0.00   335.80     0  04:21           0        5.06       0.299
  WS02006243           JUNCTION      0.00   336.50     0  05:31           0        5.05       0.060
  WS02006245           JUNCTION      0.00   340.21     0  07:31           0        5.06       0.221
  WS02006247           JUNCTION      0.00   346.47     0  07:30           0        5.07       0.144
  WS02006248           JUNCTION      0.00   351.71     0  07:30           0        5.07       0.072
  WS02006249           JUNCTION      0.00   534.97     0  03:02           0        6.01       0.185
  WS02006239           JUNCTION      0.00   337.08     0  04:21           0        5.05       0.218
  WS02006251           JUNCTION      0.08   535.20     0  03:01     0.00217        6.05       0.150
  WS02006252           JUNCTION      0.00   400.00     0  03:00           0        5.61       0.008
  WS02006253           JUNCTION      3.67   134.78     0  03:01     0.00915       0.436       0.882
  WS02006256           JUNCTION      0.00   600.00     0  02:50           0        6.44       0.048
  WS02004138           JUNCTION      0.00   379.99     0  05:00           0        6.27       0.060
  WS02004407           JUNCTION      0.00   810.05     0  03:03           0        8.88       0.092
  WS02006228           JUNCTION      0.00   791.72     0  03:02           0        9.04       0.171
  WS02006229           JUNCTION      0.00   792.80     0  03:02           0        9.06       0.133
  WS02006280           JUNCTION      0.00   611.95     0  03:02           0         2.1       0.003
  WS02006284           JUNCTION      0.10   611.06     0  03:02      0.0027         2.1       0.059
  WS02006287           JUNCTION      0.00   609.84     0  03:02           0         2.1       0.034
  WSF200               JUNCTION      0.00   807.27     0  03:05           0        8.74       0.057
  HS02004901           JUNCTION     32.58    32.58     0  03:01      0.0853      0.0856       2.107
  HS02004881           JUNCTION     13.69   131.68     0  03:01      0.0372       0.403       0.077
  HS02004876           JUNCTION     24.31   119.37     0  03:01      0.0714       0.367       0.153
  HS02004870           JUNCTION     25.15    96.63     0  03:01      0.0703       0.295       0.038
  HS02004862           JUNCTION     23.13    73.48     0  03:01      0.0763       0.225       0.080
  HS02004856           JUNCTION     18.81    51.88     0  03:01      0.0529        0.15       0.973
  HS02004852           JUNCTION      0.00    35.11     0  03:01           0      0.0975       0.061
  HS02004848           JUNCTION     51.30    51.30     0  03:01        0.17        0.17       0.030
  HS02004842           JUNCTION      0.00    15.11     0  03:01           0      0.0852      18.025
  HS02004837           JUNCTION     48.64    62.30     0  03:01       0.302       0.374       0.218
  HS02004830           JUNCTION      0.15    61.39     0  03:01     0.00423       0.364       0.341
  HS02004824           JUNCTION     61.99   121.76     0  03:01       0.222       0.584       0.093
  HS02004817           JUNCTION      0.60   117.99     0  03:02      0.0169       0.601       2.855
  HS02004807           JUNCTION     46.68   158.05     0  03:01       0.129       0.713       0.602
  HS02004802           JUNCTION      0.00   156.92     0  03:03           0       0.709       0.571
  HS02004799           JUNCTION     37.02   389.10     0  03:01       0.105        1.19       0.208
  HS02004792           JUNCTION    159.34   356.44     0  03:01       0.445        1.08       0.038
  HS02004788           JUNCTION     52.70   202.58     0  03:02       0.193       0.638       0.062
  HS02004785           JUNCTION      0.15   157.28     0  03:01     0.00423       0.447       0.112
  HS02004777           JUNCTION      0.03   160.02     0  03:01    0.000846       0.447       1.175
  HS02004770           JUNCTION    133.95   163.77     0  03:01       0.365       0.449       0.699
  HS02004480           JUNCTION      0.00   456.70     0  03:01           0         1.4       0.083
  HS02004479           JUNCTION      0.00    72.19     0  03:02           0       0.228       0.322
  HS02004478           JUNCTION      0.00   609.30     0  03:02           0         2.1       0.018
  YS02001745           JUNCTION    387.96   453.62     0  02:45        2.65        2.66       0.415
  YS02001748           JUNCTION      0.04   649.08     0  02:45     0.00127        2.65       0.865
  YS02001751           JUNCTION      0.01   400.32     0  03:01     0.00031        2.61       0.899
  YS02001754           JUNCTION      0.26   400.58     0  03:01     0.00733         2.6       0.960
  YS02001762           JUNCTION      0.00   379.90     0  02:54           0         1.8       1.187
  YS02001765           JUNCTION      0.00   380.08     0  02:54           0         1.8       1.369
  YS02001767           JUNCTION      0.54   379.96     0  02:54      0.0151        1.83       2.007
  YS02001770           JUNCTION    496.57   496.57     0  03:01        2.97        2.99       1.068
  YS02001774           JUNCTION      0.00   315.79     0  03:28           0        1.16       2.199
  YS02001779           JUNCTION      0.01   316.13     0  03:28    0.000141        1.13       1.373
  YS02001882           JUNCTION      0.00    27.15     0  02:44           0      0.0187      14.138
  YS02001884           JUNCTION      0.00    55.58     0  02:46           0      0.0534      13.563
  YS02001759           JUNCTION    483.56   767.27     0  02:55        2.74         4.5       0.513
  YS02001887           JUNCTION    623.03   623.03     0  03:01        3.16        3.19       0.275
  YS02001890           JUNCTION      0.00   622.96     0  03:01           0        3.14       0.301
  YS02001898           JUNCTION      0.00   516.98     0  03:02           0        3.09       0.114
  YS02001901           JUNCTION      0.00   516.99     0  03:01           0        3.08       0.228
  YS02001904           JUNCTION      0.00   517.06     0  03:01           0        3.08       0.209
  YS02001907           JUNCTION      0.00  1064.06     0  03:01           0        6.88       0.358
  YS02001910           JUNCTION      0.00   549.29     0  02:53           0        3.81       0.318
  YS02001915           JUNCTION    347.37   549.16     0  02:53        2.22        3.86       0.164
  YS02001918           JUNCTION      0.00   288.35     0  02:53           0        1.66       0.118
  YS02001619           JUNCTION    337.96   337.96     0  03:01        2.21        2.21       0.556
  YS02001629           JUNCTION      0.00   222.02     0  02:49           0        1.57       1.865
  YS02001641           JUNCTION      0.00   468.17     0  02:50           0        4.09       0.518
  YS02001644           JUNCTION    368.39  1053.06     0  03:28        2.55         8.5       0.307
  YS02001652           JUNCTION      0.00   485.32     0  03:02           0         2.3       1.022
  YS02001655           JUNCTION      0.15   485.00     0  03:02     0.00434        2.33       1.104
  YS02001920           JUNCTION      2.87   288.39     0  02:53      0.0809        1.64       0.188
  YS02001923           JUNCTION      0.04   275.45     0  02:53     0.00106        1.55       0.050
  YS02001926           JUNCTION      0.05   206.69     0  02:53     0.00147        1.53       0.223
  YS02001929           JUNCTION    163.23   163.23     0  03:01        1.53        1.53       0.039
  YS02001658           JUNCTION      0.00   614.70     0  02:44           0        2.35       1.010
  YS02001661           JUNCTION      0.00   748.12     0  03:03           0        3.03      -0.048
  YS02001664           JUNCTION    446.68   446.68     0  03:01        2.35        3.03       0.217
  YS02001622           JUNCTION      0.00   338.17     0  03:01           0        2.19       1.464
  YS02001633           JUNCTION    373.80   468.20     0  02:50        2.63        4.14       0.782
  YS02001649           JUNCTION      0.00   987.72     0  02:50           0        5.18       0.721
  YS02001757           JUNCTION      0.00  1933.65     0  02:52           0        10.3       0.909
  YS02001895           JUNCTION      0.00   517.06     0  03:01           0        3.09       0.163
  YS02001625           JUNCTION      0.00   338.11     0  03:01           0        2.16       1.815
  YS02163301           JUNCTION      0.00   222.32     0  02:49           0        1.54       1.568
  YS02163601           JUNCTION      0.11   468.32     0  02:50      0.0031        4.11       0.738
  YS02164001           JUNCTION      0.00   468.36     0  02:50           0        4.09       0.493
  YS02001647           JUNCTION      0.00   712.97     0  02:50           0        3.99       0.714
  YSB1154              JUNCTION     43.21    43.21     0  03:01       0.127       0.128       1.144
  YSB6556              JUNCTION      0.00    41.77     0  03:01           0       0.129       0.980
  YSB1174              JUNCTION     35.94    35.94     0  03:01      0.0924      0.0931       1.403
  YSB1171              JUNCTION      0.00    73.33     0  03:01           0       0.227       2.866
  YS02006553           JUNCTION      0.00   671.85     0  03:32           0        6.13       0.259
  YS02006561           JUNCTION      0.00   969.20     0  03:00           0        8.97       0.011
  YS02006556           JUNCTION      0.00   671.75     0  03:32           0        6.13       0.186
  YS02006558           JUNCTION    532.26   969.37     0  03:00         2.9           9       0.058
  YS02001783           JUNCTION      0.00   969.15     0  03:00           0        8.97       0.029
  YS02001784           JUNCTION      1.06   970.11     0  03:01      0.0299           9       0.044
  YS02001786           JUNCTION      0.06   970.26     0  03:00     0.00159           9       0.041
  YS02001788           JUNCTION      0.07   970.26     0  03:00       0.002           9       0.024
  YS02001790           JUNCTION      0.15   970.41     0  03:00     0.00437           9       0.030
  YS02001791           JUNCTION      0.00   970.41     0  03:00           0        8.99       0.012
  YS02001793           JUNCTION      0.00   970.55     0  03:00           0        9.01      -0.023
  WS02004139           JUNCTION      0.32   379.72     0  07:20     0.00905        6.27       0.593
  WSC                  OUTFALL       0.00  1045.93     0  03:10           0        15.4       0.000
  3                    OUTFALL       0.00   583.84     0  03:00           0         4.7       0.000
  4                    OUTFALL       0.00   341.81     0  03:02           0        0.93       0.000
  5                    OUTFALL       0.00     0.00     0  00:00           0           0       0.000 ltr
  JK-storage           STORAGE       0.00   970.65     0  03:00           0        9.17      -3.962
  CC-storage           STORAGE       0.00  1933.83     0  02:52           0        9.33       0.556
  XR-storage           STORAGE     849.17   849.17     0  03:01        10.2        10.8      -0.001
  
  
  **********************
  Node Surcharge Summary
  **********************
  
  Surcharging occurs when water rises above the top of the highest conduit.
  ---------------------------------------------------------------------
                                               Max. Height   Min. Depth
                                   Hours       Above Crown    Below Rim
  Node                 Type      Surcharged         Meters       Meters
  ---------------------------------------------------------------------
  WS02004401           JUNCTION        0.32          0.112        1.548
  WS02004402           JUNCTION        0.37          0.114        1.626
  WS02004403           JUNCTION        0.38          0.103        1.927
  WS02004404           JUNCTION        0.64          0.155        2.625
  WS02004406           JUNCTION        0.52          0.105        2.345
  WS02004405           JUNCTION        0.55          0.136        2.664
  WS02006109           JUNCTION        2.98          0.449        1.371
  WS02006110           JUNCTION        1.09          0.206        1.644
  WS02006112           JUNCTION        1.26          0.391        1.289
  WS02006115           JUNCTION        0.13          0.055        2.195
  WS02006116           JUNCTION        0.16          0.062        2.228
  WS02006230           JUNCTION        0.57          0.319        1.251
  WS02006231           JUNCTION        0.80          0.326        1.204
  WS02006232           JUNCTION        3.32          0.428        1.052
  WS02006234           JUNCTION        1.14          0.300        0.940
  WS02006235           JUNCTION        2.37          0.315        0.975
  WS02006238           JUNCTION        2.80          0.329        1.101
  WS02006240           JUNCTION        0.94          0.219        1.171
  WS02006242           JUNCTION        2.22          0.242        0.578
  WS02006243           JUNCTION        0.52          0.124        0.646
  WS02006245           JUNCTION        0.29          0.077        0.773
  WS02006247           JUNCTION        0.29          0.073        0.687
  WS02006239           JUNCTION        1.57          0.257        1.033
  WS02006252           JUNCTION        3.26          0.193        0.907
  WS02006228           JUNCTION        2.87          0.563        1.637
  YS02001748           JUNCTION        5.03          1.190        0.000
  YS02001751           JUNCTION        5.12          1.200        0.000
  YS02001754           JUNCTION        5.28          1.136        0.014
  YS02001762           JUNCTION        5.51          1.098        0.052
  YS02001765           JUNCTION        5.48          1.023        0.077
  YS02001767           JUNCTION        5.46          0.982        0.048
  YS02001770           JUNCTION        5.37          0.920        0.000
  YS02001774           JUNCTION        5.50          1.013        0.037
  YS02001779           JUNCTION        5.29          0.680        0.000
  YS02001882           JUNCTION        1.03          0.649        0.181
  YS02001884           JUNCTION        1.06          0.681        0.189
  YS02001759           JUNCTION        5.54          1.132        0.078
  YS02001887           JUNCTION        1.14          0.760        0.190
  YS02001890           JUNCTION        1.17          0.760        0.000
  YS02001898           JUNCTION        0.99          0.546        0.194
  YS02001901           JUNCTION        1.11          0.683        0.187
  YS02001904           JUNCTION        1.09          0.643        0.207
  YS02001907           JUNCTION        1.65          0.950        0.000
  YS02001910           JUNCTION        1.22          0.789        0.311
  YS02001915           JUNCTION        1.02          0.611        0.389
  YS02001918           JUNCTION        0.79          0.308        0.502
  YS02001619           JUNCTION        5.14          0.610        0.000
  YS02001629           JUNCTION        5.15          0.470        0.000
  YS02001641           JUNCTION        5.50          0.983        0.117
  YS02001644           JUNCTION        5.50          0.920        0.000
  YS02001652           JUNCTION        5.30          1.130        0.000
  YS02001655           JUNCTION        5.16          1.200        0.000
  YS02001920           JUNCTION        0.82          0.392        0.748
  YS02001926           JUNCTION        0.01          0.008        0.892
  YS02001658           JUNCTION        5.05          1.300        0.000
  YS02001661           JUNCTION        0.24          1.390        0.000
  YS02001622           JUNCTION        5.16          0.620        0.000
  YS02001633           JUNCTION        5.48          1.001        0.059
  YS02001649           JUNCTION        5.52          1.050        0.000
  YS02001757           JUNCTION        5.62          1.210        0.000
  YS02001895           JUNCTION        1.01          0.571        0.179
  YS02001625           JUNCTION        5.30          0.780        0.000
  YS02163301           JUNCTION        5.45          0.935        0.095
  YS02163601           JUNCTION        5.52          1.076        0.004
  YS02164001           JUNCTION        5.49          1.004        0.096
  YS02001647           JUNCTION        5.30          0.814        0.086
  YS02006553           JUNCTION        1.70          0.969        0.221
  YS02006561           JUNCTION        0.91          0.323        0.827
  YS02006556           JUNCTION        1.41          0.893        0.457
  YS02006558           JUNCTION        1.38          0.874        0.526
  YS02001783           JUNCTION        1.45          1.394        0.206
  YS02001784           JUNCTION        1.51          1.290        0.200
  YS02001786           JUNCTION        1.46          1.273        0.157
  YS02001788           JUNCTION        1.45          1.480        0.000
  YS02001790           JUNCTION        2.42          1.157        0.000
  YS02001791           JUNCTION        2.45          0.852        1.068
  YS02001793           JUNCTION        2.66          1.001        1.599
  
  
  *********************
  Node Flooding Summary
  *********************
  
  Flooding refers to all water that overflows a node, whether it ponds or not.
  --------------------------------------------------------------------------
                                                             Total   Maximum
                                 Maximum   Time of Max       Flood    Ponded
                        Hours       Rate    Occurrence      Volume     Depth
  Node                 Flooded       LPS   days hr:min    10^6 ltr    Meters
  --------------------------------------------------------------------------
  YS02001748              0.01    310.79      0  02:46       0.001     0.000
  YS02001751              0.01      7.53      0  02:46       0.000     0.000
  YS02001770              0.01      6.18      0  02:47       0.000     0.000
  YS02001779              2.53    315.98      0  03:28       1.115     0.000
  YS02001890              0.23    106.47      0  03:01       0.038     0.000
  YS02001907              0.65    620.71      0  03:01       0.740     0.000
  YS02001619              0.01     32.93      0  02:44       0.000     0.000
  YS02001629              0.01     37.12      0  02:43       0.000     0.000
  YS02001644              3.96   1053.05      0  03:28       6.358     0.000
  YS02001652              0.01     22.31      0  02:57       0.000     0.000
  YS02001655              0.01     22.20      0  03:13       0.000     0.000
  YS02001658              0.01    151.88      0  02:45       0.000     0.000
  YS02001661              0.01    183.02      0  02:57       0.001     0.000
  YS02001622              0.01     39.49      0  02:42       0.000     0.000
  YS02001649              0.09     49.58      0  03:00       0.006     0.000
  YS02001757              0.01     20.65      0  02:47       0.000     0.000
  YS02001625              1.18    317.70      0  03:01       0.557     0.000
  YS02001788              0.01     48.30      0  02:42       0.000     0.000
  YS02001790              0.01    111.83      0  02:41       0.000     0.000
  JK-storage              2.32    666.16      0  03:10       3.096     0.000
  XR-storage              4.35    649.64      0  03:01       3.735     0.000
  
  
  **********************
  Storage Volume Summary
  **********************
  
  --------------------------------------------------------------------------------------------------
                         Average     Avg  Evap Exfil       Maximum     Max    Time of Max    Maximum
                          Volume    Pcnt  Pcnt  Pcnt        Volume    Pcnt     Occurrence    Outflow
  Storage Unit           1000 m3    Full  Loss  Loss       1000 m3    Full    days hr:min        LPS
  --------------------------------------------------------------------------------------------------
  JK-storage               0.177      61     0     0         0.291     100       0  02:42     600.00
  CC-storage               2.964      19     0     0         3.836      24       0  04:42     400.00
  XR-storage               0.870      94     0     0         0.926     100       0  02:38     379.99
  
  
  ***********************
  Outfall Loading Summary
  ***********************
  
  -----------------------------------------------------------
                         Flow       Avg       Max       Total
                         Freq      Flow      Flow      Volume
  Outfall Node           Pcnt       LPS       LPS    10^6 ltr
  -----------------------------------------------------------
  WSC                   99.99    633.67   1045.93      15.428
  3                     85.90    266.01    583.84       4.695
  4                     58.38     76.97    341.81       0.930
  5                      0.00      0.00      0.00       0.000
  -----------------------------------------------------------
  System                61.07    976.65   1846.69      21.053
  
  
  ********************
  Link Flow Summary
  ********************
  
  -----------------------------------------------------------------------------
                                 Maximum  Time of Max   Maximum    Max/    Max/
                                  |Flow|   Occurrence   |Veloc|    Full    Full
  Link                 Type          LPS  days hr:min     m/sec    Flow   Depth
  -----------------------------------------------------------------------------
  WS02003066WSF200     CONDUIT    807.27     0  03:05      2.98    0.14    0.29
  WS02006287WS02006284 CONDUIT    610.97     0  03:02      2.31    0.28    0.37
  WS02006284WS02006280 CONDUIT    611.95     0  03:02      2.55    0.26    0.35
  WS02006280WS02006229 CONDUIT    611.95     0  03:02      4.12    0.13    0.25
  WS02006229WS02006228 CONDUIT    791.72     0  03:02      1.58    2.62    1.00
  WS02006256WS02006235 CONDUIT    166.25     0  00:01      2.58    1.76    1.00
  WS02006253WS02006251 CONDUIT    135.12     0  03:01      0.45    0.41    1.00
  WS02006252WS02006251 CONDUIT    400.62     0  05:30      3.19    1.47    1.00
  WS02006251WS02006249 CONDUIT    534.97     0  03:02      1.39    1.54    1.00
  WS02006249WS02006248 CONDUIT    351.71     0  07:30      1.16    1.93    0.99
  WS02006248WS02006247 CONDUIT    346.47     0  07:30      1.12    0.75    1.00
  WS02006247WS02006245 CONDUIT    340.21     0  07:31      1.08    2.70    1.00
  WS02006245WS02006243 CONDUIT    336.50     0  05:31      1.14    1.00    1.00
  WS02006243WS02006242 CONDUIT    335.80     0  04:21      1.02    0.72    1.00
  WS02006242WS02006240 CONDUIT    336.18     0  04:21      0.91    1.34    1.00
  WS02006240WS02006239 CONDUIT    337.08     0  04:21      1.03    1.06    1.00
  WS02006239WS02006238 CONDUIT    336.68     0  04:21      0.91    1.08    1.00
  WS02006238WS02006235 CONDUIT    336.49     0  04:22      1.25    0.75    1.00
  WS02006235WS02006234 CONDUIT    392.95     0  05:40      1.04    4.15    1.00
  WS02006234WS02006232 CONDUIT    392.82     0  05:40      1.13    0.79    1.00
  WS02006232WS02006231 CONDUIT    392.80     0  05:40      1.06    0.82    1.00
  WS02006231WS02006230 CONDUIT    392.50     0  05:40      1.36    5.95    1.00
  WS02006230WS02006229 CONDUIT    402.47     0  05:10      1.05    8.96    1.00
  WS02006228WS02006109 CONDUIT    791.72     0  03:02      1.58    3.46    1.00
  WS02006116WS02004401 CONDUIT    809.67     0  03:03      1.03    1.12    1.00
  WS02006115WS02006116 CONDUIT    809.52     0  03:03      1.03    1.04    1.00
  WS02006113WS02006111 CONDUIT    790.79     0  03:03      2.60    0.95    0.77
  WS02006112WS02006115 CONDUIT    809.41     0  03:03      1.03    0.48    1.00
  WS02006111WS02006112 CONDUIT    791.52     0  03:03      1.74    0.38    0.88
  WS02006110WS02006113 CONDUIT    792.86     0  03:02      1.69    0.72    0.89
  WS02006109WS02006110 CONDUIT    792.88     0  03:02      1.58    1.52    1.00
  WS02004411WS02004412 CONDUIT    806.94     0  03:04      1.15    1.15    0.84
  WS02004401WS02004402 CONDUIT    809.73     0  03:03      1.03    0.97    1.00
  WS02004413WS02003067 CONDUIT    806.86     0  03:05      1.40    0.35    0.69
  WS02004412WS02004413 CONDUIT    806.80     0  03:04      1.08    0.54    0.90
  WS02004410WS02004411 CONDUIT    807.44     0  03:04      1.14    1.10    0.85
  WS02004409WS02004410 CONDUIT    808.40     0  03:04      1.13    1.05    0.85
  WS02004407WS02004409 CONDUIT    809.84     0  03:03      1.62    0.29    0.61
  WS02004406WS02004407 CONDUIT    810.05     0  03:03      1.42    0.36    0.68
  WS02004405WS02004406 CONDUIT    810.02     0  03:03      1.03    1.60    1.00
  WS02004404WS02004405 CONDUIT    809.97     0  03:03      1.03    7.94    1.00
  WS02004403WS02004404 CONDUIT    809.80     0  03:03      1.03    0.59    1.00
  WS02004402WS02004403 CONDUIT    809.77     0  03:03      1.03    1.16    1.00
  WS02004139WS02001211 CONDUIT    374.46     0  07:20      0.57    0.47    0.58
  WS02004138WS02004139 CONDUIT    379.40     0  07:20      2.39    0.08    0.43
  WS02003067WS02003066 CONDUIT    807.20     0  03:05      1.52    0.26    0.48
  WS02001213WS02003059 CONDUIT    377.42     0  07:22      0.67    0.62    0.78
  WS02001212WS02001213 CONDUIT    377.06     0  07:21      1.30    0.58    0.46
  WS02001211WS02001212 CONDUIT    378.06     0  07:21      0.76    0.29    0.62
  WS02003072WS02003073 CONDUIT   1043.96     0  03:09      1.79    2.25    0.51
  WS02003069WS02003072 CONDUIT   1043.96     0  03:08      1.68    0.50    0.54
  WS02003060WS02003069 CONDUIT   1043.95     0  03:08      1.91    0.41    0.49
  WS02003059WS02003060 CONDUIT    378.57     0  07:22      0.92    0.25    0.68
  HS02004901HS02004770 CONDUIT     32.24     0  03:01      0.09    0.12    0.50
  HS02004876HS02004881 CONDUIT    119.32     0  03:01      1.17    1.27    0.15
  HS02004870HS02004876 CONDUIT     96.13     0  03:01      0.79    0.06    0.17
  HS02004842HS02004848 CONDUIT     15.11     0  03:01      0.07    0.01    0.33
  HS02004837HS02004842 CONDUIT     16.10     0  03:03      0.41    0.01    0.34
  HS02004830HS02004837 CONDUIT     61.24     0  03:01      0.66    0.06    0.13
  HS02004824HS02004830 CONDUIT     60.78     0  03:01      0.63    0.08    0.15
  HS02004817HS02004824 CONDUIT    117.39     0  03:02      0.30    0.05    0.56
  HS02004770HS02004777 CONDUIT    159.99     0  03:01      0.45    0.29    0.51
  HS02004799HS02004480 CONDUIT    387.38     0  03:01      1.00    0.49    0.56
  HS02004792HS02004799 CONDUIT    353.06     0  03:01      1.12    0.22    0.45
  HS02004788HS02004792 CONDUIT    202.14     0  03:02      1.22    0.13    0.24
  HS02004785HS02004788 CONDUIT    156.68     0  03:02      0.85    1.18    0.26
  HS02004777HS02004785 CONDUIT    157.13     0  03:01      0.53    0.19    0.42
  HS02004480HS02004478 CONDUIT    456.75     0  03:01      1.47    1.92    0.44
  HS02004479HS02004480 CONDUIT     74.07     0  03:02      0.22    0.07    0.53
  HS02004862HS02004870 CONDUIT     73.11     0  03:01      0.77    0.08    0.14
  HS02004848HS02004852 CONDUIT     35.11     0  03:01      0.52    0.04    0.10
  HS02004856HS02004862 CONDUIT     51.23     0  03:01      0.58    0.05    0.13
  HS02004852HS02004856 CONDUIT     35.02     0  03:02      0.32    0.04    0.16
  HS02004802HS02004478 CONDUIT    160.68     0  03:04      0.54    0.14    0.45
  HS02004478WS02006287 CONDUIT    609.84     0  03:02      2.03    0.17    0.33
  HS02004817HS02004807 CONDUIT    120.81     0  03:04      0.24    0.07    0.73
  HS02004807HS02004802 CONDUIT    156.92     0  03:03      0.45    0.30    0.51
  YS02001759YS02001757 CONDUIT    767.13     0  02:55      0.98    0.55    1.00
  YS02001762YS02001759 CONDUIT    380.02     0  02:54      0.48    0.44    1.00
  YS02001765YS02001762 CONDUIT    379.90     0  02:54      0.48    0.36    1.00
  YS02001770YS02001767 CONDUIT    379.43     0  02:54      0.48    1.50    1.00
  YS02001774YS02001770 CONDUIT    315.79     0  03:28      0.40    0.20    1.00
  YS02001779YS02001774 CONDUIT    316.12     0  03:28      0.40    0.16    1.00
  YS02001649YS02001757 CONDUIT    987.90     0  02:50      1.26    0.60    1.00
  YS02001767YS02001765 CONDUIT    380.08     0  02:54      0.48    0.48    1.00
  YS02006561YS02001783 CONDUIT    969.15     0  03:00      2.11    0.50    1.00
  YS02001783YS02001784 CONDUIT    969.05     0  03:01      1.93    1.34    1.00
  YS02001784YS02001785 CONDUIT    970.20     0  03:00      1.93    2.26    1.00
  YS02001788YS02001790 CONDUIT    970.25     0  03:00      2.32    0.72    1.00
  YS02001790YS02001791 CONDUIT    970.41     0  03:00      2.81    1.06    1.00
  YS02001791YS02001793 CONDUIT    970.55     0  03:00      5.60    0.42    1.00
  YS02001910YS02001907 CONDUIT    549.34     0  02:53      0.70    0.31    1.00
  YS02001786YS02001788 CONDUIT    970.19     0  03:00      2.22    1.87    1.00
  YS02001915YS02001910 CONDUIT    549.29     0  02:53      0.70    0.27    1.00
  YS02001918YS02001915 CONDUIT    290.59     0  02:53      0.44    0.16    1.00
  YS02001923YS02001920 CONDUIT    285.52     0  02:53      0.72    0.13    1.00
  YS02001926YS02001923 CONDUIT    275.41     0  02:53      0.82    0.39    0.97
  YS02001929YS02001926 CONDUIT    206.63     0  02:53      0.87    0.10    0.86
  YS02001920YS02001918 CONDUIT    288.35     0  02:53      0.70    0.28    1.00
  YS02001629YS02163301 CONDUIT    222.32     0  02:49      0.28    0.27    1.00
  YS02001619YS02001622 CONDUIT    338.17     0  03:01      0.60    0.50    1.00
  YS02001622YS02001625 CONDUIT    338.11     0  03:01      0.43    0.18    1.00
  YS02001625YS02001629 CONDUIT    222.02     0  02:49      0.28    0.11    1.00
  YS02163301YS02001633 CONDUIT    221.92     0  02:49      0.28    0.21    1.00
  YS02163601YS02164001 CONDUIT    468.36     0  02:50      0.60    0.41    1.00
  YS02164001YS02001641 CONDUIT    468.17     0  02:50      0.60    0.64    1.00
  YS02001641YS02001644 CONDUIT    468.12     0  02:50      0.60    1.51    1.00
  YS02001647YS02001649 CONDUIT    712.86     0  02:50      0.91    0.38    1.00
  YS02006553YS02006556 CONDUIT    671.75     0  03:32      0.86    0.57    1.00
  YS02006556YS02006558 CONDUIT    671.90     0  03:32      0.86    0.53    1.00
  YSB6556YSB1171       CONDUIT     41.33     0  03:02      0.13    0.04    0.80
  YS02001907YS02006553 CONDUIT    671.85     0  03:32      0.75    0.79    1.00
  YS02006558YS02006561 CONDUIT    969.20     0  03:00      3.43    2.14    1.00
  YS02001633YS02163601 CONDUIT    468.21     0  02:50      0.60    0.49    1.00
  YS02001644YS02001647 CONDUIT    712.97     0  02:50      0.91    0.42    1.00
  YS02001745YS02001748 CONDUIT    649.04     0  02:45      1.48    0.25    0.94
  YS02001748YS02001751 CONDUIT    400.30     0  03:01      1.03    0.20    1.00
  YS02001751YS02001754 CONDUIT    400.32     0  03:01      0.84    0.19    1.00
  YS02001754YS02001757 CONDUIT    400.55     0  03:01      0.51    0.16    1.00
  YS02001882YS02001884 CONDUIT     27.15     0  02:44      0.08    0.03    1.00
  YS02001884YS02001887 CONDUIT     55.58     0  02:46      0.07    0.07    1.00
  YS02001890YS02001895 CONDUIT    517.06     0  03:01      0.66    0.24    1.00
  YS02001895YS02001898 CONDUIT    516.98     0  03:02      0.66    0.90    1.00
  YS02001898YS02001901 CONDUIT    516.99     0  03:01      0.66    0.33    1.00
  YS02001901YS02001904 CONDUIT    517.06     0  03:01      0.66    0.80    1.00
  YS02001904YS02001907 CONDUIT    517.17     0  03:01      0.66    0.18    1.00
  YS02001887YS02001890 CONDUIT    622.96     0  03:01      0.79    1.07    1.00
  YS02001652YS02001649 CONDUIT    485.75     0  03:02      0.62    0.24    1.00
  YS02001655YS02001652 CONDUIT    485.32     0  03:02      0.89    0.24    1.00
  YS02001658YS02001655 CONDUIT    484.85     0  03:02      1.18    0.21    1.00
  YS02001661YS02001658 CONDUIT    614.70     0  02:44      1.56    0.24    1.00
  YS02001664YS02001661 CONDUIT    748.12     0  03:03      1.60    0.23    0.73
  YSB1154YSB6556       CONDUIT     41.77     0  03:01      0.19    0.08    0.69
  YSB1174YSB1171       CONDUIT     34.49     0  03:01      0.10    0.05    0.81
  YSB1171HS02004479    CONDUIT     72.19     0  03:02      0.54    0.05    0.65
  HS02004881HS02006253 CONDUIT    131.62     0  03:01      2.01    0.03    0.39
  YS02001793JiankangQianchi CONDUIT    970.65     0  03:00     10.88    0.08    1.00
  YS02001757CaochengTiaoxuchi CONDUIT   1933.83     0  02:52      2.71    0.85    1.00
  WSF200WS02003060     CONDUIT    806.94     0  03:05      2.00    0.18    0.39
  1                    CONDUIT   1045.93     0  03:10      3.37    0.36    0.42
  2                    CONDUIT    341.81     0  03:02      6.58    0.82    0.69
  3                    CONDUIT    583.84     0  03:00     10.01    0.93    0.77
  4                    CONDUIT      0.00     0  00:00      0.00    0.00    0.00
  CC-Pump-1            PUMP       200.00     0  02:10              1.00
  CC-Pump-2            PUMP       200.00     0  02:50              1.00
  JK-Pump-1            PUMP       300.00     0  02:50              1.00
  JK-Pump-2            PUMP       300.00     0  00:00              1.00
  XR-Pump-1            PUMP        95.00     0  01:20              1.00
  XR-Pump-2            PUMP        95.00     0  01:00              1.00
  XR-Pump-3            PUMP        95.00     0  00:00              1.00
  XR-Pump-4            PUMP        95.00     0  00:30              1.00
  
  
  ***************************
  Flow Classification Summary
  ***************************
  
  -------------------------------------------------------------------------------------
                      Adjusted    ---------- Fraction of Time in Flow Class ---------- 
                       /Actual         Up    Down  Sub   Sup   Up    Down  Norm  Inlet 
  Conduit               Length    Dry  Dry   Dry   Crit  Crit  Crit  Crit  Ltd   Ctrl  
  -------------------------------------------------------------------------------------
  WS02003066WSF200        1.00   0.05  0.01  0.00  0.00  0.94  0.00  0.00  0.60  0.00
  WS02006287WS02006284    1.00   0.04  0.01  0.00  0.56  0.39  0.00  0.00  0.67  0.00
  WS02006284WS02006280    1.00   0.04  0.00  0.00  0.00  0.00  0.00  0.96  0.00  0.00
  WS02006280WS02006229    1.00   0.04  0.00  0.00  0.00  0.00  0.00  0.95  0.00  0.00
  WS02006229WS02006228    1.00   0.00  0.00  0.00  0.99  0.00  0.00  0.01  0.00  0.00
  WS02006256WS02006235    1.00   0.00  0.00  0.00  1.00  0.00  0.00  0.00  0.00  0.00
  WS02006253WS02006251    1.00   0.03  0.01  0.00  0.96  0.00  0.00  0.00  0.00  0.00
  WS02006252WS02006251    1.00   0.07  0.00  0.00  0.00  0.00  0.93  0.00  0.00  0.00
  WS02006251WS02006249    1.00   0.00  0.00  0.00  1.00  0.00  0.00  0.00  0.24  0.00
  WS02006249WS02006248    1.00   0.00  0.02  0.00  0.92  0.00  0.06  0.00  0.00  0.00
  WS02006248WS02006247    1.00   0.02  0.00  0.00  0.98  0.00  0.00  0.00  0.13  0.00
  WS02006247WS02006245    1.00   0.02  0.00  0.00  0.98  0.00  0.00  0.00  0.00  0.00
  WS02006245WS02006243    1.00   0.01  0.00  0.00  0.95  0.00  0.00  0.04  0.01  0.00
  WS02006243WS02006242    1.00   0.01  0.00  0.00  0.99  0.00  0.00  0.00  0.23  0.00
  WS02006242WS02006240    1.00   0.00  0.00  0.00  1.00  0.00  0.00  0.00  0.00  0.00
  WS02006240WS02006239    1.00   0.00  0.00  0.00  0.97  0.00  0.00  0.03  0.02  0.00
  WS02006239WS02006238    1.00   0.00  0.00  0.00  1.00  0.00  0.00  0.00  0.00  0.00
  WS02006238WS02006235    1.00   0.00  0.00  0.00  1.00  0.00  0.00  0.00  0.00  0.00
  WS02006235WS02006234    1.00   0.00  0.00  0.00  0.96  0.00  0.04  0.00  0.00  0.00
  WS02006234WS02006232    1.00   0.00  0.00  0.00  1.00  0.00  0.00  0.00  0.00  0.00
  WS02006232WS02006231    1.00   0.00  0.00  0.00  0.99  0.00  0.00  0.00  0.00  0.00
  WS02006231WS02006230    1.00   0.00  0.00  0.00  0.79  0.00  0.21  0.00  0.00  0.00
  WS02006230WS02006229    1.00   0.00  0.00  0.00  0.99  0.00  0.00  0.01  0.01  0.00
  WS02006228WS02006109    1.00   0.00  0.00  0.00  1.00  0.00  0.00  0.00  0.00  0.00
  WS02006116WS02004401    1.00   0.02  0.00  0.00  0.98  0.00  0.00  0.00  0.00  0.00
  WS02006115WS02006116    1.00   0.02  0.00  0.00  0.97  0.00  0.00  0.01  0.00  0.00
  WS02006113WS02006111    1.00   0.02  0.00  0.00  0.03  0.95  0.00  0.00  0.09  0.00
  WS02006112WS02006115    1.00   0.02  0.00  0.00  0.98  0.00  0.00  0.00  0.00  0.00
  WS02006111WS02006112    1.00   0.02  0.00  0.00  0.98  0.00  0.00  0.00  0.91  0.00
  WS02006110WS02006113    1.00   0.01  0.01  0.00  0.98  0.00  0.00  0.00  0.00  0.00
  WS02006109WS02006110    1.00   0.00  0.01  0.00  0.98  0.00  0.01  0.00  0.00  0.00
  WS02004411WS02004412    1.00   0.04  0.00  0.00  0.96  0.00  0.00  0.00  0.00  0.00
  WS02004401WS02004402    1.00   0.02  0.00  0.00  0.98  0.00  0.00  0.00  0.00  0.00
  WS02004413WS02003067    1.00   0.04  0.01  0.00  0.00  0.00  0.95  0.00  0.00  0.00
  WS02004412WS02004413    1.00   0.04  0.00  0.00  0.96  0.00  0.00  0.00  0.03  0.00
  WS02004410WS02004411    1.00   0.04  0.00  0.00  0.96  0.00  0.00  0.00  0.03  0.00
  WS02004409WS02004410    1.00   0.04  0.00  0.00  0.96  0.00  0.00  0.00  0.03  0.00
  WS02004407WS02004409    1.00   0.03  0.00  0.00  0.96  0.00  0.00  0.00  0.89  0.00
  WS02004406WS02004407    1.00   0.00  0.03  0.00  0.97  0.00  0.00  0.00  0.00  0.00
  WS02004405WS02004406    1.00   0.00  0.00  0.00  1.00  0.00  0.00  0.00  0.01  0.00
  WS02004404WS02004405    1.00   0.00  0.00  0.00  1.00  0.00  0.00  0.00  0.00  0.00
  WS02004403WS02004404    1.00   0.00  0.02  0.00  0.98  0.00  0.00  0.00  0.01  0.00
  WS02004402WS02004403    1.00   0.02  0.00  0.00  0.98  0.00  0.00  0.00  0.00  0.00
  WS02004139WS02001211    1.00   0.00  0.00  0.00  0.99  0.00  0.01  0.00  0.00  0.00
  WS02004138WS02004139    1.00   0.00  0.00  0.00  0.99  0.01  0.00  0.00  1.00  0.00
  WS02003067WS02003066    1.00   0.05  0.00  0.00  0.95  0.00  0.00  0.00  0.00  0.00
  WS02001213WS02003059    1.00   0.00  0.01  0.00  0.99  0.00  0.00  0.00  0.00  0.00
  WS02001212WS02001213    1.00   0.01  0.00  0.00  0.89  0.00  0.10  0.00  0.00  0.00
  WS02001211WS02001212    1.00   0.00  0.01  0.00  0.99  0.00  0.00  0.00  0.00  0.00
  WS02003072WS02003073    1.00   0.00  0.00  0.00  0.00  0.00  0.00  1.00  0.00  0.00
  WS02003069WS02003072    1.00   0.00  0.00  0.00  0.99  0.01  0.00  0.00  0.22  0.00
  WS02003060WS02003069    1.00   0.00  0.00  0.00  0.99  0.01  0.00  0.00  0.11  0.00
  WS02003059WS02003060    1.00   0.00  0.00  0.00  1.00  0.00  0.00  0.00  0.02  0.00
  HS02004901HS02004770    1.00   0.04  0.00  0.00  0.96  0.00  0.00  0.00  0.01  0.00
  HS02004876HS02004881    1.00   0.02  0.00  0.00  0.86  0.11  0.00  0.00  0.00  0.00
  HS02004870HS02004876    1.00   0.01  0.00  0.00  0.99  0.00  0.00  0.00  0.95  0.00
  HS02004842HS02004848    1.00   0.00  0.04  0.00  0.96  0.00  0.00  0.00  0.58  0.00
  HS02004837HS02004842    1.00   0.00  0.00  0.00  0.99  0.01  0.00  0.00  0.11  0.00
  HS02004830HS02004837    1.00   0.00  0.00  0.00  1.00  0.00  0.00  0.00  0.99  0.00
  HS02004824HS02004830    1.00   0.00  0.00  0.00  1.00  0.00  0.00  0.00  0.01  0.00
  HS02004817HS02004824    1.00   0.00  0.00  0.00  1.00  0.00  0.00  0.00  0.98  0.00
  HS02004770HS02004777    1.00   0.00  0.04  0.00  0.96  0.00  0.00  0.00  0.04  0.00
  HS02004799HS02004480    1.00   0.00  0.02  0.00  0.95  0.00  0.02  0.00  0.00  0.00
  HS02004792HS02004799    1.00   0.00  0.00  0.00  0.99  0.01  0.00  0.00  0.98  0.00
  HS02004788HS02004792    1.00   0.00  0.00  0.00  0.99  0.01  0.00  0.00  0.98  0.00
  HS02004785HS02004788    1.00   0.00  0.00  0.00  1.00  0.00  0.00  0.00  0.00  0.00
  HS02004777HS02004785    1.00   0.00  0.00  0.00  1.00  0.00  0.00  0.00  0.15  0.00
  HS02004480HS02004478    1.00   0.04  0.00  0.00  0.65  0.00  0.00  0.31  0.00  0.00
  HS02004479HS02004480    1.00   0.03  0.00  0.00  0.97  0.00  0.00  0.00  0.13  0.00
  HS02004862HS02004870    1.00   0.00  0.00  0.00  1.00  0.00  0.00  0.00  0.06  0.00
  HS02004848HS02004852    1.00   0.04  0.00  0.00  0.96  0.00  0.00  0.00  0.64  0.00
  HS02004856HS02004862    1.00   0.00  0.05  0.00  0.95  0.00  0.00  0.00  0.79  0.00
  HS02004852HS02004856    1.00   0.04  0.00  0.00  0.96  0.00  0.00  0.00  0.81  0.00
  HS02004802HS02004478    1.00   0.04  0.00  0.00  0.96  0.00  0.00  0.00  0.03  0.00
  HS02004478WS02006287    1.00   0.05  0.00  0.00  0.71  0.24  0.00  0.00  0.66  0.00
  HS02004817HS02004807    1.00   0.00  0.04  0.00  0.96  0.00  0.00  0.00  0.01  0.00
  HS02004807HS02004802    1.00   0.04  0.00  0.00  0.96  0.00  0.00  0.00  0.00  0.00
  YS02001759YS02001757    1.00   0.00  0.00  0.00  1.00  0.00  0.00  0.00  0.17  0.00
  YS02001762YS02001759    1.00   0.00  0.00  0.00  1.00  0.00  0.00  0.00  0.04  0.00
  YS02001765YS02001762    1.00   0.00  0.00  0.00  1.00  0.00  0.00  0.00  0.17  0.00
  YS02001770YS02001767    1.00   0.00  0.00  0.00  1.00  0.00  0.00  0.00  0.00  0.00
  YS02001774YS02001770    1.00   0.00  0.04  0.00  0.96  0.00  0.00  0.00  0.04  0.00
  YS02001779YS02001774    1.00   0.00  0.00  0.00  1.00  0.00  0.00  0.00  0.22  0.00
  YS02001649YS02001757    1.00   0.00  0.00  0.00  1.00  0.00  0.00  0.00  0.17  0.00
  YS02001767YS02001765    1.00   0.00  0.00  0.00  1.00  0.00  0.00  0.00  0.01  0.00
  YS02006561YS02001783    1.00   0.05  0.00  0.00  0.41  0.53  0.00  0.00  0.54  0.00
  YS02001783YS02001784    1.00   0.00  0.05  0.00  0.95  0.00  0.00  0.00  0.01  0.00
  YS02001784YS02001785    1.00   0.00  0.00  0.00  1.00  0.00  0.00  0.00  0.21  0.00
  YS02001788YS02001790    1.00   0.00  0.00  0.00  0.48  0.52  0.00  0.00  0.48  0.00
  YS02001790YS02001791    1.00   0.00  0.00  0.00  0.45  0.55  0.00  0.00  0.40  0.00
  YS02001791YS02001793    1.00   0.00  0.00  0.00  0.49  0.51  0.00  0.00  0.06  0.00
  YS02001910YS02001907    1.00   0.00  0.00  0.00  0.98  0.00  0.00  0.02  0.13  0.00
  YS02001786YS02001788    1.00   0.00  0.00  0.00  0.46  0.54  0.00  0.00  0.00  0.00
  YS02001915YS02001910    1.00   0.00  0.00  0.00  0.99  0.01  0.00  0.00  0.19  0.00
  YS02001918YS02001915    1.00   0.00  0.01  0.00  0.98  0.01  0.00  0.00  0.56  0.00
  YS02001923YS02001920    1.00   0.00  0.00  0.00  1.00  0.00  0.00  0.00  0.83  0.00
  YS02001926YS02001923    1.00   0.00  0.03  0.00  0.20  0.00  0.77  0.00  0.00  0.00
  YS02001929YS02001926    1.00   0.00  0.04  0.00  0.96  0.00  0.00  0.00  0.75  0.00
  YS02001920YS02001918    1.00   0.00  0.01  0.00  0.99  0.00  0.00  0.00  0.00  0.00
  YS02001629YS02163301    1.00   0.05  0.00  0.00  0.95  0.00  0.00  0.00  0.00  0.00
  YS02001619YS02001622    1.00   0.04  0.00  0.00  0.96  0.00  0.00  0.00  0.00  0.00
  YS02001622YS02001625    1.00   0.04  0.00  0.00  0.96  0.00  0.00  0.00  0.08  0.00
  YS02001625YS02001629    1.00   0.04  0.02  0.00  0.93  0.00  0.01  0.00  0.00  0.00
  YS02163301YS02001633    1.00   0.00  0.05  0.00  0.95  0.00  0.00  0.00  0.00  0.00
  YS02163601YS02164001    1.00   0.00  0.03  0.00  0.97  0.00  0.00  0.00  0.00  0.00
  YS02164001YS02001641    1.00   0.01  0.02  0.00  0.97  0.00  0.00  0.00  0.06  0.00
  YS02001641YS02001644    1.00   0.00  0.01  0.00  0.99  0.00  0.00  0.00  0.00  0.00
  YS02001647YS02001649    1.00   0.00  0.05  0.00  0.95  0.00  0.00  0.00  0.01  0.00
  YS02006553YS02006556    1.00   0.01  0.00  0.00  0.99  0.00  0.00  0.00  0.03  0.00
  YS02006556YS02006558    1.00   0.00  0.00  0.00  1.00  0.00  0.00  0.00  0.00  0.00
  YSB6556YSB1171          1.00   0.03  0.01  0.00  0.96  0.00  0.00  0.00  0.00  0.00
  YS02001907YS02006553    1.00   0.00  0.02  0.00  0.98  0.00  0.00  0.00  0.00  0.00
  YS02006558YS02006561    1.00   0.05  0.00  0.00  0.24  0.71  0.00  0.00  0.45  0.00
  YS02001633YS02163601    1.00   0.00  0.01  0.00  0.99  0.00  0.00  0.00  0.16  0.00
  YS02001644YS02001647    1.00   0.00  0.05  0.00  0.95  0.00  0.00  0.00  0.00  0.00
  YS02001745YS02001748    1.00   0.00  0.00  0.00  0.89  0.01  0.00  0.10  0.04  0.00
  YS02001748YS02001751    1.00   0.00  0.00  0.00  0.98  0.02  0.00  0.00  0.15  0.00
  YS02001751YS02001754    1.00   0.00  0.00  0.00  0.94  0.00  0.00  0.06  0.02  0.00
  YS02001754YS02001757    1.00   0.00  0.00  0.00  0.99  0.01  0.00  0.00  0.21  0.00
  YS02001882YS02001884    1.00   0.05  0.00  0.00  0.95  0.00  0.00  0.00  0.00  0.00
  YS02001884YS02001887    1.00   0.03  0.01  0.00  0.96  0.00  0.00  0.00  0.00  0.00
  YS02001890YS02001895    1.00   0.00  0.05  0.00  0.95  0.00  0.00  0.00  0.00  0.00
  YS02001895YS02001898    1.00   0.05  0.00  0.00  0.94  0.00  0.01  0.00  0.00  0.00
  YS02001898YS02001901    1.00   0.05  0.00  0.00  0.95  0.00  0.00  0.00  0.03  0.00
  YS02001901YS02001904    1.00   0.05  0.00  0.00  0.95  0.00  0.00  0.00  0.00  0.00
  YS02001904YS02001907    1.00   0.00  0.05  0.00  0.95  0.00  0.00  0.00  0.00  0.00
  YS02001887YS02001890    1.00   0.00  0.00  0.00  0.98  0.00  0.02  0.00  0.00  0.00
  YS02001652YS02001649    1.00   0.00  0.00  0.00  1.00  0.00  0.00  0.00  0.19  0.00
  YS02001655YS02001652    1.00   0.00  0.00  0.00  0.94  0.00  0.00  0.06  0.03  0.00
  YS02001658YS02001655    1.00   0.00  0.04  0.00  0.93  0.02  0.00  0.00  0.13  0.00
  YS02001661YS02001658    1.00   0.04  0.00  0.00  0.89  0.07  0.00  0.00  0.09  0.00
  YS02001664YS02001661    1.00   0.04  0.00  0.00  0.87  0.09  0.00  0.00  0.22  0.00
  YSB1154YSB6556          1.00   0.04  0.00  0.00  0.96  0.00  0.00  0.00  0.02  0.00
  YSB1174YSB1171          1.00   0.03  0.01  0.00  0.97  0.00  0.00  0.00  0.00  0.00
  YSB1171HS02004479       1.00   0.03  0.00  0.00  0.97  0.00  0.00  0.00  0.11  0.00
  HS02004881HS02006253    1.00   0.03  0.00  0.00  0.86  0.02  0.00  0.09  0.68  0.00
  YS02001793JiankangQianchi    1.00   0.00  0.00  0.00  0.78  0.22  0.00  0.00  0.22  0.00
  YS02001757CaochengTiaoxuchi    1.00   0.00  0.07  0.00  0.91  0.02  0.00  0.00  0.00  0.00
  WSF200WS02003060        1.00   0.00  0.05  0.00  0.56  0.39  0.00  0.00  0.19  0.00
  1                       1.00   0.00  0.00  0.00  0.00  1.00  0.00  0.00  0.35  0.00
  2                       1.00   0.41  0.00  0.00  0.00  0.59  0.00  0.00  0.13  0.00
  3                       1.00   0.14  0.00  0.00  0.00  0.86  0.00  0.00  0.34  0.00
  4                       1.00   1.00  0.00  0.00  0.00  0.00  0.00  0.00  0.00  0.00
  
  
  *************************
  Conduit Surcharge Summary
  *************************
  
  ----------------------------------------------------------------------------
                                                           Hours        Hours 
                         --------- Hours Full --------   Above Full   Capacity
  Conduit                Both Ends  Upstream  Dnstream   Normal Flow   Limited
  ----------------------------------------------------------------------------
  WS02006229WS02006228        2.87      3.13      2.87      5.12         2.87
  WS02006256WS02006235        5.83      5.84      7.83      1.66         0.01
  WS02006253WS02006251        0.21      0.21      0.27      0.01         0.01
  WS02006252WS02006251        1.70      1.70      3.25      2.85         0.01
  WS02006251WS02006249        0.07      0.23      0.07      1.88         0.07
  WS02006249WS02006248        0.01      0.01      0.07      5.10         0.01
  WS02006248WS02006247        0.07      0.07      0.29      0.01         0.01
  WS02006247WS02006245        0.29      0.33      0.29      5.37         0.29
  WS02006245WS02006243        0.32      0.32      0.52      0.01         0.01
  WS02006243WS02006242        0.60      0.60      2.22      0.01         0.01
  WS02006242WS02006240        0.94      0.94      2.71      3.03         0.01
  WS02006240WS02006239        1.25      1.25      1.57      0.14         0.01
  WS02006239WS02006238        2.57      2.57      2.80      0.17         0.01
  WS02006238WS02006235        2.60      2.60      3.17      0.01         0.01
  WS02006235WS02006234        1.14      1.14      2.36      5.84         0.01
  WS02006234WS02006232        1.44      1.44      3.31      0.01         0.01
  WS02006232WS02006231        0.80      0.80      3.31      0.01         0.01
  WS02006231WS02006230        0.57      0.57      0.85      5.89         0.01
  WS02006230WS02006229        4.17      5.03      4.17      6.13         4.17
  WS02006228WS02006109        2.97      3.70      2.97      5.40         2.97
  WS02006116WS02004401        0.31      0.31      0.32      0.23         0.24
  WS02006115WS02006116        0.16      0.16      0.16      0.10         0.10
  WS02006112WS02006115        0.13      0.13      1.26      0.01         0.01
  WS02006111WS02006112        0.01      0.01      5.13      0.01         0.01
  WS02006110WS02006113        0.01      0.01      3.44      0.01         0.01
  WS02006109WS02006110        1.09      1.09      3.70      1.09         0.01
  WS02004411WS02004412        0.01      0.01      0.01      0.28         0.01
  WS02004401WS02004402        0.32      0.32      0.37      0.01         0.01
  WS02004410WS02004411        0.01      0.01      0.01      0.22         0.01
  WS02004409WS02004410        0.01      0.01      0.01      0.11         0.01
  WS02004406WS02004407        0.01      0.01      0.52      0.01         0.01
  WS02004405WS02004406        0.52      0.55      0.52      1.14         0.52
  WS02004404WS02004405        0.55      0.64      0.55      5.90         0.55
  WS02004403WS02004404        0.38      0.38      0.64      0.01         0.01
  WS02004402WS02004403        0.37      0.37      0.38      0.30         0.30
  WS02003072WS02003073        0.01      0.01      0.01      5.42         0.01
  HS02004876HS02004881        0.01      0.01      0.01      0.17         0.01
  HS02004785HS02004788        0.01      0.01      0.01      0.10         0.01
  HS02004480HS02004478        0.01      0.01      0.01      0.52         0.01
  YS02001759YS02001757        5.54      5.54      5.62      0.01         0.01
  YS02001762YS02001759        5.51      5.51      5.54      0.01         0.01
  YS02001765YS02001762        5.48      5.48      5.51      0.01         0.01
  YS02001770YS02001767        5.46      5.46      5.46      0.32         0.85
  YS02001774YS02001770        5.37      5.37      5.50      0.01         0.01
  YS02001779YS02001774        5.29      5.29      5.50      0.01         0.01
  YS02001649YS02001757        5.52      5.52      5.62      0.01         0.01
  YS02001767YS02001765        5.46      5.46      5.48      0.01         0.01
  YS02006561YS02001783        0.91      0.91      1.45      0.01         0.01
  YS02001783YS02001784        1.45      1.45      1.51      1.32         1.23
  YS02001784YS02001785        1.46      1.51      1.46      2.21         1.46
  YS02001788YS02001790        1.45      1.45      2.42      0.01         0.01
  YS02001790YS02001791        2.42      2.42      2.45      0.75         0.75
  YS02001791YS02001793        2.45      2.45      2.74      0.01         0.01
  YS02001910YS02001907        1.22      1.22      1.65      0.01         0.01
  YS02001786YS02001788        1.45      1.46      1.45      1.81         1.45
  YS02001915YS02001910        1.02      1.02      1.22      0.01         0.01
  YS02001918YS02001915        0.79      0.79      1.02      0.01         0.01
  YS02001923YS02001920        0.61      0.61      0.82      0.01         0.01
  YS02001926YS02001923        0.01      0.01      0.01      0.01         0.01
  YS02001929YS02001926        0.01      0.01      0.01      0.01         0.01
  YS02001920YS02001918        0.79      0.79      0.82      0.01         0.01
  YS02001629YS02163301        5.40      5.40      5.45      0.01         0.01
  YS02001619YS02001622        5.14      5.14      5.16      0.01         0.01
  YS02001622YS02001625        5.16      5.16      5.30      0.01         0.01
  YS02001625YS02001629        5.15      5.15      5.30      0.01         0.01
  YS02163301YS02001633        5.45      5.45      5.49      0.01         0.01
  YS02163601YS02164001        5.49      5.49      5.52      0.01         0.01
  YS02164001YS02001641        5.49      5.49      5.50      0.01         0.02
  YS02001641YS02001644        5.50      5.50      5.50      1.49         1.57
  YS02001647YS02001649        5.30      5.30      5.52      0.01         0.01
  YS02006553YS02006556        1.41      1.41      1.70      0.01         0.01
  YS02006556YS02006558        1.54      1.54      1.79      0.01         0.01
  YS02001907YS02006553        2.24      2.24      2.46      0.01         0.01
  YS02006558YS02006561        1.11      1.38      1.11      2.09         1.11
  YS02001633YS02163601        5.48      5.48      5.52      0.01         0.01
  YS02001644YS02001647        5.30      5.30      5.50      0.01         0.01
  YS02001745YS02001748        0.01      0.01      5.03      0.01         0.01
  YS02001748YS02001751        5.06      5.06      5.12      0.01         0.01
  YS02001751YS02001754        5.12      5.12      5.28      0.01         0.01
  YS02001754YS02001757        5.30      5.30      5.62      0.01         0.01
  YS02001882YS02001884        1.03      1.03      1.06      0.01         0.01
  YS02001884YS02001887        1.12      1.12      1.14      0.01         0.01
  YS02001890YS02001895        1.01      1.01      1.23      0.01         0.01
  YS02001895YS02001898        0.99      0.99      1.01      0.01         0.01
  YS02001898YS02001901        1.02      1.02      1.11      0.01         0.01
  YS02001901YS02001904        1.09      1.09      1.11      0.01         0.01
  YS02001904YS02001907        1.09      1.09      1.74      0.01         0.01
  YS02001887YS02001890        1.17      1.17      1.20      0.07         0.01
  YS02001652YS02001649        5.30      5.30      5.52      0.01         0.01
  YS02001655YS02001652        5.16      5.16      5.30      0.01         0.01
  YS02001658YS02001655        5.05      5.05      5.16      0.01         0.01
  YS02001661YS02001658        0.22      0.22      5.05      0.01         0.01
  YS02001664YS02001661        0.01      0.01      1.13      0.01         0.01
  YS02001793JiankangQianchi        2.66      2.66      4.55      0.01         0.01
  YS02001757CaochengTiaoxuchi        4.83      4.83      5.62      0.01         0.01
  
  
  ***************
  Pumping Summary
  ***************
  
  ---------------------------------------------------------------------------------------------------------
                                                  Min       Avg       Max     Total     Power    % Time Off
                        Percent   Number of      Flow      Flow      Flow    Volume     Usage    Pump Curve
  Pump                 Utilized   Start-Ups       LPS       LPS       LPS  10^6 ltr     Kw-hr    Low   High
  ---------------------------------------------------------------------------------------------------------
  CC-Pump-1               72.28           3      0.00    157.23    200.00     3.179      4.60    0.0   10.8
  CC-Pump-2               59.52           5      0.00    146.56    200.00     2.435      3.66    0.0   10.6
  JK-Pump-1               74.46           6      0.00    182.48    300.00     2.717     23.23    0.0    0.0
  JK-Pump-2               80.85           5      0.00    217.32    300.00     3.711     34.68    0.0    0.0
  XR-Pump-1               68.08           4      0.00     71.09     95.00     1.368      9.62    0.0    0.0
  XR-Pump-2               74.45           6      0.00     64.95     95.00     1.339     10.01    0.0    0.0
  XR-Pump-3               91.49           5      0.00     75.46     95.00     1.938     13.50    0.0    0.0
  XR-Pump-4               89.35           9      0.00     65.31     95.00     1.624     10.70    0.0    0.0
  

  Analysis begun on:  Sat Dec 25 10:54:24 2021
  Analysis ended on:  Sat Dec 25 10:54:29 2021
  Total elapsed time: 00:00:05